<additional xmlns:xsi="http://www.w3.org/2001/XMLSchema-instance" xsi:noNamespaceSchemaLocation="http://sumo.dlr.de/xsd/additional_file.xsd">

    <edgeData id="edge_data" file="Logs/log_edges.xml" freq="10" begin="0" end="9000" />

</additional>