<?xml version="1.0" encoding="UTF-8"?>

<!-- generated on 2025-04-09 22:58:15 by Eclipse SUMO netedit Version 1.22.0
-->

<routes xmlns:xsi="http://www.w3.org/2001/XMLSchema-instance" xsi:noNamespaceSchemaLocation="http://sumo.dlr.de/xsd/routes_file.xsd">

    <!-- Define Vehicle Types  -->
<!-- Passenger Vehicles (car_aggr1 = Least -> car_aggr5 = Most Aggressive) -->
<vType id="car_aggr1" vClass="passenger" speedFactor="0.80" speedDev="0.08" tau="5.0" impatience="2.0" lcImpatience="1.0"
       lcCooperative="0.5" lcStrategic="60" lcSpeedGain="7.0" lcKeepRight="0.6"
       lcPushy="1.2" lcPushyGap="0.5" lcSublane="2.0" lcAssertive="2.0"
       lcTimeToImpatience="15" lcSigma="0.4" minGapLat="0.8"
       maxSpeed="35" accel="1.8" decel="3.0">
    <param key="laneChangeModel" value="SL2015"/>
</vType>

<vType id="car_aggr2" vClass="passenger" speedFactor="0.85" speedDev="0.09" tau="4.5" impatience="2.5" lcImpatience="1.5"
       lcCooperative="0.3" lcStrategic="40" lcSpeedGain="8.0" lcKeepRight="0.5"
       lcPushy="1.8" lcPushyGap="0.4" lcSublane="3.0" lcAssertive="2.8"
       lcTimeToImpatience="12" lcSigma="0.6" minGapLat="0.6"
       maxSpeed="35" accel="2.2" decel="4.0">
    <param key="laneChangeModel" value="SL2015"/>
</vType>

<vType id="car_aggr3" vClass="passenger" speedFactor="0.90" speedDev="0.10" tau="3.5" impatience="3.0" lcImpatience="2.0"
       lcCooperative="0.2" lcStrategic="25" lcSpeedGain="9.0" lcKeepRight="0.3"
       lcPushy="2.2" lcPushyGap="0.3" lcSublane="4.0" lcAssertive="3.5"
       lcTimeToImpatience="9" lcSigma="0.8" minGapLat="0.5"
       maxSpeed="40" accel="2.5" decel="5.0">
    <param key="laneChangeModel" value="SL2015"/>
</vType>

<vType id="car_aggr4" vClass="passenger" speedFactor="0.95" speedDev="0.12" tau="3.0" impatience="3.5" lcImpatience="2.5"
       lcCooperative="0.1" lcStrategic="15" lcSpeedGain="10.0" lcKeepRight="0.2"
       lcPushy="2.6" lcPushyGap="0.2" lcSublane="5.0" lcAssertive="4.2"
       lcTimeToImpatience="6" lcSigma="1.0" minGapLat="0.4"
       maxSpeed="40" accel="2.8" decel="6.0">
    <param key="laneChangeModel" value="SL2015"/>
</vType>

<vType id="car_aggr5" vClass="passenger" speedFactor="1.00" speedDev="0.15" tau="2.5" impatience="4.0" lcImpatience="3.0"
       lcCooperative="0.0" lcStrategic="5" lcSpeedGain="11.0" lcKeepRight="0.0"
       lcPushy="3.0" lcPushyGap="0.1" lcSublane="6.0" lcAssertive="5.0"
       lcTimeToImpatience="3" lcSigma="1.2" minGapLat="0.3"
       maxSpeed="45" accel="3.0" decel="8.0">
    <param key="laneChangeModel" value="SL2015"/>
</vType>

<vTypeDistribution id="car" vTypes="car_aggr1 car_aggr2 car_aggr3 car_aggr4 car_aggr5" probabilities="0.4 0.3 0.1 0.1 0.1" />

    <!-- Routes -->
    <route id="r_O1_D1" edges="O1 L1a L1b L1c L2 D1"/>
    <route id="r_O2_D1" edges="O2 O2.206 L2 D1"/>
    <!-- Vehicles, persons and containers (sorted by depart) -->
    <flow id="f_main_0" type="car" begin="0.00" departLane="free" departSpeed="max" route="r_O1_D1" end="7200.00" period="exp(0.97)"/>
    <flow id="f_ramp_0" type="car" begin="0.00" departLane="free" departSpeed="max" route="r_O2_D1" end="10.00" period="exp(0.14)"/>
    <flow id="f_ramp_10" type="car" begin="10.00" departLane="free" departSpeed="max" route="r_O2_D1" end="20.00" period="exp(0.14)"/>
    <flow id="f_ramp_20" type="car" begin="20.00" departLane="free" departSpeed="max" route="r_O2_D1" end="30.00" period="exp(0.15)"/>
    <flow id="f_ramp_30" type="car" begin="30.00" departLane="free" departSpeed="max" route="r_O2_D1" end="40.00" period="exp(0.15)"/>
    <flow id="f_ramp_40" type="car" begin="40.00" departLane="free" departSpeed="max" route="r_O2_D1" end="50.00" period="exp(0.16)"/>
    <flow id="f_ramp_50" type="car" begin="50.00" departLane="free" departSpeed="max" route="r_O2_D1" end="60.00" period="exp(0.16)"/>
    <flow id="f_ramp_60" type="car" begin="60.00" departLane="free" departSpeed="max" route="r_O2_D1" end="70.00" period="exp(0.17)"/>
    <flow id="f_ramp_70" type="car" begin="70.00" departLane="free" departSpeed="max" route="r_O2_D1" end="80.00" period="exp(0.17)"/>
    <flow id="f_ramp_80" type="car" begin="80.00" departLane="free" departSpeed="max" route="r_O2_D1" end="90.00" period="exp(0.18)"/>
    <flow id="f_ramp_90" type="car" begin="90.00" departLane="free" departSpeed="max" route="r_O2_D1" end="100.00" period="exp(0.19)"/>
    <flow id="f_ramp_100" type="car" begin="100.00" departLane="free" departSpeed="max" route="r_O2_D1" end="110.00" period="exp(0.19)"/>
    <flow id="f_ramp_110" type="car" begin="110.00" departLane="free" departSpeed="max" route="r_O2_D1" end="120.00" period="exp(0.2)"/>
    <flow id="f_ramp_120" type="car" begin="120.00" departLane="free" departSpeed="max" route="r_O2_D1" end="130.00" period="exp(0.2)"/>
    <flow id="f_ramp_130" type="car" begin="130.00" departLane="free" departSpeed="max" route="r_O2_D1" end="140.00" period="exp(0.21)"/>
    <flow id="f_ramp_140" type="car" begin="140.00" departLane="free" departSpeed="max" route="r_O2_D1" end="150.00" period="exp(0.21)"/>
    <flow id="f_ramp_150" type="car" begin="150.00" departLane="free" departSpeed="max" route="r_O2_D1" end="160.00" period="exp(0.22)"/>
    <flow id="f_ramp_160" type="car" begin="160.00" departLane="free" departSpeed="max" route="r_O2_D1" end="170.00" period="exp(0.22)"/>
    <flow id="f_ramp_170" type="car" begin="170.00" departLane="free" departSpeed="max" route="r_O2_D1" end="180.00" period="exp(0.23)"/>
    <flow id="f_ramp_180" type="car" begin="180.00" departLane="free" departSpeed="max" route="r_O2_D1" end="190.00" period="exp(0.23)"/>
    <flow id="f_ramp_190" type="car" begin="190.00" departLane="free" departSpeed="max" route="r_O2_D1" end="200.00" period="exp(0.24)"/>
    <flow id="f_ramp_200" type="car" begin="200.00" departLane="free" departSpeed="max" route="r_O2_D1" end="210.00" period="exp(0.24)"/>
    <flow id="f_ramp_210" type="car" begin="210.00" departLane="free" departSpeed="max" route="r_O2_D1" end="220.00" period="exp(0.25)"/>
    <flow id="f_ramp_220" type="car" begin="220.00" departLane="free" departSpeed="max" route="r_O2_D1" end="230.00" period="exp(0.25)"/>
    <flow id="f_ramp_230" type="car" begin="230.00" departLane="free" departSpeed="max" route="r_O2_D1" end="240.00" period="exp(0.26)"/>
    <flow id="f_ramp_240" type="car" begin="240.00" departLane="free" departSpeed="max" route="r_O2_D1" end="250.00" period="exp(0.26)"/>
    <flow id="f_ramp_250" type="car" begin="250.00" departLane="free" departSpeed="max" route="r_O2_D1" end="260.00" period="exp(0.27)"/>
    <flow id="f_ramp_260" type="car" begin="260.00" departLane="free" departSpeed="max" route="r_O2_D1" end="270.00" period="exp(0.27)"/>
    <flow id="f_ramp_270" type="car" begin="270.00" departLane="free" departSpeed="max" route="r_O2_D1" end="280.00" period="exp(0.28)"/>
    <flow id="f_ramp_280" type="car" begin="280.00" departLane="free" departSpeed="max" route="r_O2_D1" end="290.00" period="exp(0.28)"/>
    <flow id="f_ramp_290" type="car" begin="290.00" departLane="free" departSpeed="max" route="r_O2_D1" end="300.00" period="exp(0.29)"/>
    <flow id="f_ramp_300" type="car" begin="300.00" departLane="free" departSpeed="max" route="r_O2_D1" end="310.00" period="exp(0.29)"/>
    <flow id="f_ramp_310" type="car" begin="310.00" departLane="free" departSpeed="max" route="r_O2_D1" end="320.00" period="exp(0.3)"/>
    <flow id="f_ramp_320" type="car" begin="320.00" departLane="free" departSpeed="max" route="r_O2_D1" end="330.00" period="exp(0.3)"/>
    <flow id="f_ramp_330" type="car" begin="330.00" departLane="free" departSpeed="max" route="r_O2_D1" end="340.00" period="exp(0.31)"/>
    <flow id="f_ramp_340" type="car" begin="340.00" departLane="free" departSpeed="max" route="r_O2_D1" end="350.00" period="exp(0.31)"/>
    <flow id="f_ramp_350" type="car" begin="350.00" departLane="free" departSpeed="max" route="r_O2_D1" end="360.00" period="exp(0.32)"/>
    <flow id="f_ramp_360" type="car" begin="360.00" departLane="free" departSpeed="max" route="r_O2_D1" end="370.00" period="exp(0.32)"/>
    <flow id="f_ramp_370" type="car" begin="370.00" departLane="free" departSpeed="max" route="r_O2_D1" end="380.00" period="exp(0.33)"/>
    <flow id="f_ramp_380" type="car" begin="380.00" departLane="free" departSpeed="max" route="r_O2_D1" end="390.00" period="exp(0.33)"/>
    <flow id="f_ramp_390" type="car" begin="390.00" departLane="free" departSpeed="max" route="r_O2_D1" end="400.00" period="exp(0.34)"/>
    <flow id="f_ramp_400" type="car" begin="400.00" departLane="free" departSpeed="max" route="r_O2_D1" end="410.00" period="exp(0.34)"/>
    <flow id="f_ramp_410" type="car" begin="410.00" departLane="free" departSpeed="max" route="r_O2_D1" end="420.00" period="exp(0.35)"/>
    <flow id="f_ramp_420" type="car" begin="420.00" departLane="free" departSpeed="max" route="r_O2_D1" end="430.00" period="exp(0.35)"/>
    <flow id="f_ramp_430" type="car" begin="430.00" departLane="free" departSpeed="max" route="r_O2_D1" end="440.00" period="exp(0.36)"/>
    <flow id="f_ramp_440" type="car" begin="440.00" departLane="free" departSpeed="max" route="r_O2_D1" end="450.00" period="exp(0.37)"/>
    <flow id="f_ramp_450" type="car" begin="450.00" departLane="free" departSpeed="max" route="r_O2_D1" end="460.00" period="exp(0.37)"/>
    <flow id="f_ramp_460" type="car" begin="460.00" departLane="free" departSpeed="max" route="r_O2_D1" end="470.00" period="exp(0.38)"/>
    <flow id="f_ramp_470" type="car" begin="470.00" departLane="free" departSpeed="max" route="r_O2_D1" end="480.00" period="exp(0.38)"/>
    <flow id="f_ramp_480" type="car" begin="480.00" departLane="free" departSpeed="max" route="r_O2_D1" end="490.00" period="exp(0.39)"/>
    <flow id="f_ramp_490" type="car" begin="490.00" departLane="free" departSpeed="max" route="r_O2_D1" end="500.00" period="exp(0.39)"/>
    <flow id="f_ramp_500" type="car" begin="500.00" departLane="free" departSpeed="max" route="r_O2_D1" end="510.00" period="exp(0.4)"/>
    <flow id="f_ramp_510" type="car" begin="510.00" departLane="free" departSpeed="max" route="r_O2_D1" end="520.00" period="exp(0.4)"/>
    <flow id="f_ramp_520" type="car" begin="520.00" departLane="free" departSpeed="max" route="r_O2_D1" end="530.00" period="exp(0.41)"/>
    <flow id="f_ramp_530" type="car" begin="530.00" departLane="free" departSpeed="max" route="r_O2_D1" end="540.00" period="exp(0.41)"/>
    <flow id="f_ramp_540" type="car" begin="540.00" departLane="free" departSpeed="max" route="r_O2_D1" end="1260.00" period="exp(0.42)"/>
    <flow id="f_ramp_1260" type="car" begin="1260.00" departLane="free" departSpeed="max" route="r_O2_D1" end="1270.00" period="exp(0.42)"/>
    <flow id="f_ramp_1270" type="car" begin="1270.00" departLane="free" departSpeed="max" route="r_O2_D1" end="1280.00" period="exp(0.41)"/>
    <flow id="f_ramp_1280" type="car" begin="1280.00" departLane="free" departSpeed="max" route="r_O2_D1" end="1290.00" period="exp(0.41)"/>
    <flow id="f_ramp_1290" type="car" begin="1290.00" departLane="free" departSpeed="max" route="r_O2_D1" end="1300.00" period="exp(0.4)"/>
    <flow id="f_ramp_1300" type="car" begin="1300.00" departLane="free" departSpeed="max" route="r_O2_D1" end="1310.00" period="exp(0.4)"/>
    <flow id="f_ramp_1310" type="car" begin="1310.00" departLane="free" departSpeed="max" route="r_O2_D1" end="1320.00" period="exp(0.39)"/>
    <flow id="f_ramp_1320" type="car" begin="1320.00" departLane="free" departSpeed="max" route="r_O2_D1" end="1330.00" period="exp(0.39)"/>
    <flow id="f_ramp_1330" type="car" begin="1330.00" departLane="free" departSpeed="max" route="r_O2_D1" end="1340.00" period="exp(0.38)"/>
    <flow id="f_ramp_1340" type="car" begin="1340.00" departLane="free" departSpeed="max" route="r_O2_D1" end="1350.00" period="exp(0.38)"/>
    <flow id="f_ramp_1350" type="car" begin="1350.00" departLane="free" departSpeed="max" route="r_O2_D1" end="1360.00" period="exp(0.37)"/>
    <flow id="f_ramp_1360" type="car" begin="1360.00" departLane="free" departSpeed="max" route="r_O2_D1" end="1370.00" period="exp(0.37)"/>
    <flow id="f_ramp_1370" type="car" begin="1370.00" departLane="free" departSpeed="max" route="r_O2_D1" end="1380.00" period="exp(0.36)"/>
    <flow id="f_ramp_1380" type="car" begin="1380.00" departLane="free" departSpeed="max" route="r_O2_D1" end="1390.00" period="exp(0.35)"/>
    <flow id="f_ramp_1390" type="car" begin="1390.00" departLane="free" departSpeed="max" route="r_O2_D1" end="1400.00" period="exp(0.35)"/>
    <flow id="f_ramp_1400" type="car" begin="1400.00" departLane="free" departSpeed="max" route="r_O2_D1" end="1410.00" period="exp(0.34)"/>
    <flow id="f_ramp_1410" type="car" begin="1410.00" departLane="free" departSpeed="max" route="r_O2_D1" end="1420.00" period="exp(0.34)"/>
    <flow id="f_ramp_1420" type="car" begin="1420.00" departLane="free" departSpeed="max" route="r_O2_D1" end="1430.00" period="exp(0.33)"/>
    <flow id="f_ramp_1430" type="car" begin="1430.00" departLane="free" departSpeed="max" route="r_O2_D1" end="1440.00" period="exp(0.33)"/>
    <flow id="f_ramp_1440" type="car" begin="1440.00" departLane="free" departSpeed="max" route="r_O2_D1" end="1450.00" period="exp(0.32)"/>
    <flow id="f_ramp_1450" type="car" begin="1450.00" departLane="free" departSpeed="max" route="r_O2_D1" end="1460.00" period="exp(0.32)"/>
    <flow id="f_ramp_1460" type="car" begin="1460.00" departLane="free" departSpeed="max" route="r_O2_D1" end="1470.00" period="exp(0.31)"/>
    <flow id="f_ramp_1470" type="car" begin="1470.00" departLane="free" departSpeed="max" route="r_O2_D1" end="1480.00" period="exp(0.31)"/>
    <flow id="f_ramp_1480" type="car" begin="1480.00" departLane="free" departSpeed="max" route="r_O2_D1" end="1490.00" period="exp(0.3)"/>
    <flow id="f_ramp_1490" type="car" begin="1490.00" departLane="free" departSpeed="max" route="r_O2_D1" end="1500.00" period="exp(0.3)"/>
    <flow id="f_ramp_1500" type="car" begin="1500.00" departLane="free" departSpeed="max" route="r_O2_D1" end="1510.00" period="exp(0.29)"/>
    <flow id="f_ramp_1510" type="car" begin="1510.00" departLane="free" departSpeed="max" route="r_O2_D1" end="1520.00" period="exp(0.29)"/>
    <flow id="f_ramp_1520" type="car" begin="1520.00" departLane="free" departSpeed="max" route="r_O2_D1" end="1530.00" period="exp(0.28)"/>
    <flow id="f_ramp_1530" type="car" begin="1530.00" departLane="free" departSpeed="max" route="r_O2_D1" end="1540.00" period="exp(0.28)"/>
    <flow id="f_ramp_1540" type="car" begin="1540.00" departLane="free" departSpeed="max" route="r_O2_D1" end="1550.00" period="exp(0.27)"/>
    <flow id="f_ramp_1550" type="car" begin="1550.00" departLane="free" departSpeed="max" route="r_O2_D1" end="1560.00" period="exp(0.27)"/>
    <flow id="f_ramp_1560" type="car" begin="1560.00" departLane="free" departSpeed="max" route="r_O2_D1" end="1570.00" period="exp(0.26)"/>
    <flow id="f_ramp_1570" type="car" begin="1570.00" departLane="free" departSpeed="max" route="r_O2_D1" end="1580.00" period="exp(0.26)"/>
    <flow id="f_ramp_1580" type="car" begin="1580.00" departLane="free" departSpeed="max" route="r_O2_D1" end="1590.00" period="exp(0.25)"/>
    <flow id="f_ramp_1590" type="car" begin="1590.00" departLane="free" departSpeed="max" route="r_O2_D1" end="1600.00" period="exp(0.25)"/>
    <flow id="f_ramp_1600" type="car" begin="1600.00" departLane="free" departSpeed="max" route="r_O2_D1" end="1610.00" period="exp(0.24)"/>
    <flow id="f_ramp_1610" type="car" begin="1610.00" departLane="free" departSpeed="max" route="r_O2_D1" end="1620.00" period="exp(0.24)"/>
    <flow id="f_ramp_1620" type="car" begin="1620.00" departLane="free" departSpeed="max" route="r_O2_D1" end="1630.00" period="exp(0.23)"/>
    <flow id="f_ramp_1630" type="car" begin="1630.00" departLane="free" departSpeed="max" route="r_O2_D1" end="1640.00" period="exp(0.23)"/>
    <flow id="f_ramp_1640" type="car" begin="1640.00" departLane="free" departSpeed="max" route="r_O2_D1" end="1650.00" period="exp(0.22)"/>
    <flow id="f_ramp_1650" type="car" begin="1650.00" departLane="free" departSpeed="max" route="r_O2_D1" end="1660.00" period="exp(0.22)"/>
    <flow id="f_ramp_1660" type="car" begin="1660.00" departLane="free" departSpeed="max" route="r_O2_D1" end="1670.00" period="exp(0.21)"/>
    <flow id="f_ramp_1670" type="car" begin="1670.00" departLane="free" departSpeed="max" route="r_O2_D1" end="1680.00" period="exp(0.21)"/>
    <flow id="f_ramp_1680" type="car" begin="1680.00" departLane="free" departSpeed="max" route="r_O2_D1" end="1690.00" period="exp(0.2)"/>
    <flow id="f_ramp_1690" type="car" begin="1690.00" departLane="free" departSpeed="max" route="r_O2_D1" end="1700.00" period="exp(0.2)"/>
    <flow id="f_ramp_1700" type="car" begin="1700.00" departLane="free" departSpeed="max" route="r_O2_D1" end="1710.00" period="exp(0.19)"/>
    <flow id="f_ramp_1710" type="car" begin="1710.00" departLane="free" departSpeed="max" route="r_O2_D1" end="1720.00" period="exp(0.19)"/>
    <flow id="f_ramp_1720" type="car" begin="1720.00" departLane="free" departSpeed="max" route="r_O2_D1" end="1730.00" period="exp(0.18)"/>
    <flow id="f_ramp_1730" type="car" begin="1730.00" departLane="free" departSpeed="max" route="r_O2_D1" end="1740.00" period="exp(0.17)"/>
    <flow id="f_ramp_1740" type="car" begin="1740.00" departLane="free" departSpeed="max" route="r_O2_D1" end="1750.00" period="exp(0.17)"/>
    <flow id="f_ramp_1750" type="car" begin="1750.00" departLane="free" departSpeed="max" route="r_O2_D1" end="1760.00" period="exp(0.16)"/>
    <flow id="f_ramp_1760" type="car" begin="1760.00" departLane="free" departSpeed="max" route="r_O2_D1" end="1770.00" period="exp(0.16)"/>
    <flow id="f_ramp_1770" type="car" begin="1770.00" departLane="free" departSpeed="max" route="r_O2_D1" end="1780.00" period="exp(0.15)"/>
    <flow id="f_ramp_1780" type="car" begin="1780.00" departLane="free" departSpeed="max" route="r_O2_D1" end="1790.00" period="exp(0.15)"/>
    <flow id="f_ramp_1790" type="car" begin="1790.00" departLane="free" departSpeed="max" route="r_O2_D1" end="1800.00" period="exp(0.14)"/>
    <flow id="f_ramp_1800" type="car" begin="1800.00" departLane="free" departSpeed="max" route="r_O2_D1" end="9000.00" period="exp(0.14)"/>
    <flow id="f_main_7200" type="car" begin="7200.00" departLane="free" departSpeed="max" route="r_O1_D1" end="7210.00" period="exp(0.97)"/>
    <flow id="f_main_7210" type="car" begin="7210.00" departLane="free" departSpeed="max" route="r_O1_D1" end="7220.00" period="exp(0.96)"/>
    <flow id="f_main_7220" type="car" begin="7220.00" departLane="free" departSpeed="max" route="r_O1_D1" end="7230.00" period="exp(0.96)"/>
    <flow id="f_main_7230" type="car" begin="7230.00" departLane="free" departSpeed="max" route="r_O1_D1" end="7240.00" period="exp(0.95)"/>
    <flow id="f_main_7240" type="car" begin="7240.00" departLane="free" departSpeed="max" route="r_O1_D1" end="7250.00" period="exp(0.94)"/>
    <flow id="f_main_7250" type="car" begin="7250.00" departLane="free" departSpeed="max" route="r_O1_D1" end="7260.00" period="exp(0.93)"/>
    <flow id="f_main_7260" type="car" begin="7260.00" departLane="free" departSpeed="max" route="r_O1_D1" end="7270.00" period="exp(0.93)"/>
    <flow id="f_main_7270" type="car" begin="7270.00" departLane="free" departSpeed="max" route="r_O1_D1" end="7280.00" period="exp(0.92)"/>
    <flow id="f_main_7280" type="car" begin="7280.00" departLane="free" departSpeed="max" route="r_O1_D1" end="7290.00" period="exp(0.91)"/>
    <flow id="f_main_7290" type="car" begin="7290.00" departLane="free" departSpeed="max" route="r_O1_D1" end="7300.00" period="exp(0.9)"/>
    <flow id="f_main_7300" type="car" begin="7300.00" departLane="free" departSpeed="max" route="r_O1_D1" end="7310.00" period="exp(0.9)"/>
    <flow id="f_main_7310" type="car" begin="7310.00" departLane="free" departSpeed="max" route="r_O1_D1" end="7320.00" period="exp(0.89)"/>
    <flow id="f_main_7320" type="car" begin="7320.00" departLane="free" departSpeed="max" route="r_O1_D1" end="7330.00" period="exp(0.88)"/>
    <flow id="f_main_7330" type="car" begin="7330.00" departLane="free" departSpeed="max" route="r_O1_D1" end="7340.00" period="exp(0.87)"/>
    <flow id="f_main_7340" type="car" begin="7340.00" departLane="free" departSpeed="max" route="r_O1_D1" end="7350.00" period="exp(0.86)"/>
    <flow id="f_main_7350" type="car" begin="7350.00" departLane="free" departSpeed="max" route="r_O1_D1" end="7360.00" period="exp(0.86)"/>
    <flow id="f_main_7360" type="car" begin="7360.00" departLane="free" departSpeed="max" route="r_O1_D1" end="7370.00" period="exp(0.85)"/>
    <flow id="f_main_7370" type="car" begin="7370.00" departLane="free" departSpeed="max" route="r_O1_D1" end="7380.00" period="exp(0.84)"/>
    <flow id="f_main_7380" type="car" begin="7380.00" departLane="free" departSpeed="max" route="r_O1_D1" end="7390.00" period="exp(0.83)"/>
    <flow id="f_main_7390" type="car" begin="7390.00" departLane="free" departSpeed="max" route="r_O1_D1" end="7400.00" period="exp(0.83)"/>
    <flow id="f_main_7400" type="car" begin="7400.00" departLane="free" departSpeed="max" route="r_O1_D1" end="7410.00" period="exp(0.82)"/>
    <flow id="f_main_7410" type="car" begin="7410.00" departLane="free" departSpeed="max" route="r_O1_D1" end="7420.00" period="exp(0.81)"/>
    <flow id="f_main_7420" type="car" begin="7420.00" departLane="free" departSpeed="max" route="r_O1_D1" end="7430.00" period="exp(0.8)"/>
    <flow id="f_main_7430" type="car" begin="7430.00" departLane="free" departSpeed="max" route="r_O1_D1" end="7440.00" period="exp(0.79)"/>
    <flow id="f_main_7440" type="car" begin="7440.00" departLane="free" departSpeed="max" route="r_O1_D1" end="7450.00" period="exp(0.79)"/>
    <flow id="f_main_7450" type="car" begin="7450.00" departLane="free" departSpeed="max" route="r_O1_D1" end="7460.00" period="exp(0.78)"/>
    <flow id="f_main_7460" type="car" begin="7460.00" departLane="free" departSpeed="max" route="r_O1_D1" end="7470.00" period="exp(0.77)"/>
    <flow id="f_main_7470" type="car" begin="7470.00" departLane="free" departSpeed="max" route="r_O1_D1" end="7480.00" period="exp(0.76)"/>
    <flow id="f_main_7480" type="car" begin="7480.00" departLane="free" departSpeed="max" route="r_O1_D1" end="7490.00" period="exp(0.76)"/>
    <flow id="f_main_7490" type="car" begin="7490.00" departLane="free" departSpeed="max" route="r_O1_D1" end="7500.00" period="exp(0.75)"/>
    <flow id="f_main_7500" type="car" begin="7500.00" departLane="free" departSpeed="max" route="r_O1_D1" end="7510.00" period="exp(0.74)"/>
    <flow id="f_main_7510" type="car" begin="7510.00" departLane="free" departSpeed="max" route="r_O1_D1" end="7520.00" period="exp(0.73)"/>
    <flow id="f_main_7520" type="car" begin="7520.00" departLane="free" departSpeed="max" route="r_O1_D1" end="7530.00" period="exp(0.73)"/>
    <flow id="f_main_7530" type="car" begin="7530.00" departLane="free" departSpeed="max" route="r_O1_D1" end="7540.00" period="exp(0.72)"/>
    <flow id="f_main_7540" type="car" begin="7540.00" departLane="free" departSpeed="max" route="r_O1_D1" end="7550.00" period="exp(0.71)"/>
    <flow id="f_main_7550" type="car" begin="7550.00" departLane="free" departSpeed="max" route="r_O1_D1" end="7560.00" period="exp(0.7)"/>
    <flow id="f_main_7560" type="car" begin="7560.00" departLane="free" departSpeed="max" route="r_O1_D1" end="7570.00" period="exp(0.69)"/>
    <flow id="f_main_7570" type="car" begin="7570.00" departLane="free" departSpeed="max" route="r_O1_D1" end="7580.00" period="exp(0.69)"/>
    <flow id="f_main_7580" type="car" begin="7580.00" departLane="free" departSpeed="max" route="r_O1_D1" end="7590.00" period="exp(0.68)"/>
    <flow id="f_main_7590" type="car" begin="7590.00" departLane="free" departSpeed="max" route="r_O1_D1" end="7600.00" period="exp(0.67)"/>
    <flow id="f_main_7600" type="car" begin="7600.00" departLane="free" departSpeed="max" route="r_O1_D1" end="7610.00" period="exp(0.66)"/>
    <flow id="f_main_7610" type="car" begin="7610.00" departLane="free" departSpeed="max" route="r_O1_D1" end="7620.00" period="exp(0.66)"/>
    <flow id="f_main_7620" type="car" begin="7620.00" departLane="free" departSpeed="max" route="r_O1_D1" end="7630.00" period="exp(0.65)"/>
    <flow id="f_main_7630" type="car" begin="7630.00" departLane="free" departSpeed="max" route="r_O1_D1" end="7640.00" period="exp(0.64)"/>
    <flow id="f_main_7640" type="car" begin="7640.00" departLane="free" departSpeed="max" route="r_O1_D1" end="7650.00" period="exp(0.63)"/>
    <flow id="f_main_7650" type="car" begin="7650.00" departLane="free" departSpeed="max" route="r_O1_D1" end="7660.00" period="exp(0.62)"/>
    <flow id="f_main_7660" type="car" begin="7660.00" departLane="free" departSpeed="max" route="r_O1_D1" end="7670.00" period="exp(0.62)"/>
    <flow id="f_main_7670" type="car" begin="7670.00" departLane="free" departSpeed="max" route="r_O1_D1" end="7680.00" period="exp(0.61)"/>
    <flow id="f_main_7680" type="car" begin="7680.00" departLane="free" departSpeed="max" route="r_O1_D1" end="7690.00" period="exp(0.6)"/>
    <flow id="f_main_7690" type="car" begin="7690.00" departLane="free" departSpeed="max" route="r_O1_D1" end="7700.00" period="exp(0.59)"/>
    <flow id="f_main_7700" type="car" begin="7700.00" departLane="free" departSpeed="max" route="r_O1_D1" end="7710.00" period="exp(0.59)"/>
    <flow id="f_main_7710" type="car" begin="7710.00" departLane="free" departSpeed="max" route="r_O1_D1" end="7720.00" period="exp(0.58)"/>
    <flow id="f_main_7720" type="car" begin="7720.00" departLane="free" departSpeed="max" route="r_O1_D1" end="7730.00" period="exp(0.57)"/>
    <flow id="f_main_7730" type="car" begin="7730.00" departLane="free" departSpeed="max" route="r_O1_D1" end="7740.00" period="exp(0.56)"/>
    <flow id="f_main_7740" type="car" begin="7740.00" departLane="free" departSpeed="max" route="r_O1_D1" end="7750.00" period="exp(0.56)"/>
    <flow id="f_main_7750" type="car" begin="7750.00" departLane="free" departSpeed="max" route="r_O1_D1" end="7760.00" period="exp(0.55)"/>
    <flow id="f_main_7760" type="car" begin="7760.00" departLane="free" departSpeed="max" route="r_O1_D1" end="7770.00" period="exp(0.54)"/>
    <flow id="f_main_7770" type="car" begin="7770.00" departLane="free" departSpeed="max" route="r_O1_D1" end="7780.00" period="exp(0.53)"/>
    <flow id="f_main_7780" type="car" begin="7780.00" departLane="free" departSpeed="max" route="r_O1_D1" end="7790.00" period="exp(0.52)"/>
    <flow id="f_main_7790" type="car" begin="7790.00" departLane="free" departSpeed="max" route="r_O1_D1" end="7800.00" period="exp(0.52)"/>
    <flow id="f_main_7800" type="car" begin="7800.00" departLane="free" departSpeed="max" route="r_O1_D1" end="7810.00" period="exp(0.51)"/>
    <flow id="f_main_7810" type="car" begin="7810.00" departLane="free" departSpeed="max" route="r_O1_D1" end="7820.00" period="exp(0.5)"/>
    <flow id="f_main_7820" type="car" begin="7820.00" departLane="free" departSpeed="max" route="r_O1_D1" end="7830.00" period="exp(0.49)"/>
    <flow id="f_main_7830" type="car" begin="7830.00" departLane="free" departSpeed="max" route="r_O1_D1" end="7840.00" period="exp(0.49)"/>
    <flow id="f_main_7840" type="car" begin="7840.00" departLane="free" departSpeed="max" route="r_O1_D1" end="7850.00" period="exp(0.48)"/>
    <flow id="f_main_7850" type="car" begin="7850.00" departLane="free" departSpeed="max" route="r_O1_D1" end="7860.00" period="exp(0.47)"/>
    <flow id="f_main_7860" type="car" begin="7860.00" departLane="free" departSpeed="max" route="r_O1_D1" end="7870.00" period="exp(0.46)"/>
    <flow id="f_main_7870" type="car" begin="7870.00" departLane="free" departSpeed="max" route="r_O1_D1" end="7880.00" period="exp(0.46)"/>
    <flow id="f_main_7880" type="car" begin="7880.00" departLane="free" departSpeed="max" route="r_O1_D1" end="7890.00" period="exp(0.45)"/>
    <flow id="f_main_7890" type="car" begin="7890.00" departLane="free" departSpeed="max" route="r_O1_D1" end="7900.00" period="exp(0.44)"/>
    <flow id="f_main_7900" type="car" begin="7900.00" departLane="free" departSpeed="max" route="r_O1_D1" end="7910.00" period="exp(0.43)"/>
    <flow id="f_main_7910" type="car" begin="7910.00" departLane="free" departSpeed="max" route="r_O1_D1" end="7920.00" period="exp(0.42)"/>
    <flow id="f_main_7920" type="car" begin="7920.00" departLane="free" departSpeed="max" route="r_O1_D1" end="7930.00" period="exp(0.42)"/>
    <flow id="f_main_7930" type="car" begin="7930.00" departLane="free" departSpeed="max" route="r_O1_D1" end="7940.00" period="exp(0.41)"/>
    <flow id="f_main_7940" type="car" begin="7940.00" departLane="free" departSpeed="max" route="r_O1_D1" end="7950.00" period="exp(0.4)"/>
    <flow id="f_main_7950" type="car" begin="7950.00" departLane="free" departSpeed="max" route="r_O1_D1" end="7960.00" period="exp(0.39)"/>
    <flow id="f_main_7960" type="car" begin="7960.00" departLane="free" departSpeed="max" route="r_O1_D1" end="7970.00" period="exp(0.39)"/>
    <flow id="f_main_7970" type="car" begin="7970.00" departLane="free" departSpeed="max" route="r_O1_D1" end="7980.00" period="exp(0.38)"/>
    <flow id="f_main_7980" type="car" begin="7980.00" departLane="free" departSpeed="max" route="r_O1_D1" end="7990.00" period="exp(0.37)"/>
    <flow id="f_main_7990" type="car" begin="7990.00" departLane="free" departSpeed="max" route="r_O1_D1" end="8000.00" period="exp(0.36)"/>
    <flow id="f_main_8000" type="car" begin="8000.00" departLane="free" departSpeed="max" route="r_O1_D1" end="8010.00" period="exp(0.35)"/>
    <flow id="f_main_8010" type="car" begin="8010.00" departLane="free" departSpeed="max" route="r_O1_D1" end="8020.00" period="exp(0.35)"/>