<?xml version='1.0' encoding='UTF-8'?>
<!-- generated on 2025-03-18 11:06:22 by Eclipse SUMO netedit Version 1.22.0
-->
<routes xmlns:xsi="http://www.w3.org/2001/XMLSchema-instance" xsi:noNamespaceSchemaLocation="http://sumo.dlr.de/xsd/routes_file.xsd">
  <vType id="car" accel="2.6" decel="4.5" sigma="0.5" length="5" minGap="2.5" maxSpeed="33.33" guiShape="passenger"/>
  <!--Defining routes for vehicles-->
  <route id="r_O2_D1" edges="O2 L2 D1"/>
  <route id="r_O1_D1" edges="O1 L1a L1b L1c L2 D1"/>
  <!--Flows with exponential headways -->
  <flow id="f_00" type="car" route="r_O2_D1" begin="0" end="10" period="exp(0.138889)" departLane="free" departSpeed="max"/>
  <flow id="f_00" type="car" route="r_O2_D1" begin="10" end="20" period="exp(0.144033)" departLane="free" departSpeed="max"/>
  <flow id="f_00" type="car" route="r_O2_D1" begin="20" end="30" period="exp(0.149177)" departLane="free" departSpeed="max"/>
  <flow id="f_00" type="car" route="r_O2_D1" begin="30" end="40" period="exp(0.154321)" departLane="free" departSpeed="max"/>
  <flow id="f_00" type="car" route="r_O2_D1" begin="40" end="50" period="exp(0.159465)" departLane="free" departSpeed="max"/>
  <flow id="f_00" type="car" route="r_O2_D1" begin="50" end="60" period="exp(0.164609)" departLane="free" departSpeed="max"/>
  <flow id="f_00" type="car" route="r_O2_D1" begin="60" end="70" period="exp(0.169753)" departLane="free" departSpeed="max"/>
  <flow id="f_00" type="car" route="r_O2_D1" begin="70" end="80" period="exp(0.174897)" departLane="free" departSpeed="max"/>
  <flow id="f_00" type="car" route="r_O2_D1" begin="80" end="90" period="exp(0.180041)" departLane="free" departSpeed="max"/>
  <flow id="f_00" type="car" route="r_O2_D1" begin="90" end="100" period="exp(0.185185)" departLane="free" departSpeed="max"/>
  <flow id="f_00" type="car" route="r_O2_D1" begin="100" end="110" period="exp(0.190329)" departLane="free" departSpeed="max"/>
  <flow id="f_00" type="car" route="r_O2_D1" begin="110" end="120" period="exp(0.195473)" departLane="free" departSpeed="max"/>
  <flow id="f_00" type="car" route="r_O2_D1" begin="120" end="130" period="exp(0.200617)" departLane="free" departSpeed="max"/>
  <flow id="f_00" type="car" route="r_O2_D1" begin="130" end="140" period="exp(0.205761)" departLane="free" departSpeed="max"/>
  <flow id="f_00" type="car" route="r_O2_D1" begin="140" end="150" period="exp(0.210905)" departLane="free" departSpeed="max"/>
  <flow id="f_00" type="car" route="r_O2_D1" begin="150" end="160" period="exp(0.216049)" departLane="free" departSpeed="max"/>
  <flow id="f_00" type="car" route="r_O2_D1" begin="160" end="170" period="exp(0.221193)" departLane="free" departSpeed="max"/>
  <flow id="f_00" type="car" route="r_O2_D1" begin="170" end="180" period="exp(0.226337)" departLane="free" departSpeed="max"/>
  <flow id="f_00" type="car" route="r_O2_D1" begin="180" end="190" period="exp(0.231481)" departLane="free" departSpeed="max"/>
  <flow id="f_00" type="car" route="r_O2_D1" begin="190" end="200" period="exp(0.236626)" departLane="free" departSpeed="max"/>
  <flow id="f_00" type="car" route="r_O2_D1" begin="200" end="210" period="exp(0.24177)" departLane="free" departSpeed="max"/>
  <flow id="f_00" type="car" route="r_O2_D1" begin="210" end="220" period="exp(0.246914)" departLane="free" departSpeed="max"/>
  <flow id="f_00" type="car" route="r_O2_D1" begin="220" end="230" period="exp(0.252058)" departLane="free" departSpeed="max"/>
  <flow id="f_00" type="car" route="r_O2_D1" begin="230" end="240" period="exp(0.257202)" departLane="free" departSpeed="max"/>
  <flow id="f_00" type="car" route="r_O2_D1" begin="240" end="250" period="exp(0.262346)" departLane="free" departSpeed="max"/>
  <flow id="f_00" type="car" route="r_O2_D1" begin="250" end="260" period="exp(0.26749)" departLane="free" departSpeed="max"/>
  <flow id="f_00" type="car" route="r_O2_D1" begin="260" end="270" period="exp(0.272634)" departLane="free" departSpeed="max"/>
  <flow id="f_00" type="car" route="r_O2_D1" begin="270" end="280" period="exp(0.277778)" departLane="free" departSpeed="max"/>
  <flow id="f_00" type="car" route="r_O2_D1" begin="280" end="290" period="exp(0.282922)" departLane="free" departSpeed="max"/>
  <flow id="f_00" type="car" route="r_O2_D1" begin="290" end="300" period="exp(0.288066)" departLane="free" departSpeed="max"/>
  <flow id="f_00" type="car" route="r_O2_D1" begin="300" end="310" period="exp(0.29321)" departLane="free" departSpeed="max"/>
  <flow id="f_00" type="car" route="r_O2_D1" begin="310" end="320" period="exp(0.298354)" departLane="free" departSpeed="max"/>
  <flow id="f_00" type="car" route="r_O2_D1" begin="320" end="330" period="exp(0.303498)" departLane="free" departSpeed="max"/>
  <flow id="f_00" type="car" route="r_O2_D1" begin="330" end="340" period="exp(0.308642)" departLane="free" departSpeed="max"/>
  <flow id="f_00" type="car" route="r_O2_D1" begin="340" end="350" period="exp(0.313786)" departLane="free" departSpeed="max"/>
  <flow id="f_00" type="car" route="r_O2_D1" begin="350" end="360" period="exp(0.31893)" departLane="free" departSpeed="max"/>
  <flow id="f_00" type="car" route="r_O2_D1" begin="360" end="370" period="exp(0.324074)" departLane="free" departSpeed="max"/>
  <flow id="f_00" type="car" route="r_O2_D1" begin="370" end="380" period="exp(0.329218)" departLane="free" departSpeed="max"/>
  <flow id="f_00" type="car" route="r_O2_D1" begin="380" end="390" period="exp(0.334362)" departLane="free" departSpeed="max"/>
  <flow id="f_00" type="car" route="r_O2_D1" begin="390" end="400" period="exp(0.339506)" departLane="free" departSpeed="max"/>
  <flow id="f_00" type="car" route="r_O2_D1" begin="400" end="410" period="exp(0.34465)" departLane="free" departSpeed="max"/>
  <flow id="f_00" type="car" route="r_O2_D1" begin="410" end="420" period="exp(0.349794)" departLane="free" departSpeed="max"/>
  <flow id="f_00" type="car" route="r_O2_D1" begin="420" end="430" period="exp(0.354938)" departLane="free" departSpeed="max"/>
  <flow id="f_00" type="car" route="r_O2_D1" begin="430" end="440" period="exp(0.360082)" departLane="free" departSpeed="max"/>
  <flow id="f_00" type="car" route="r_O2_D1" begin="440" end="450" period="exp(0.365226)" departLane="free" departSpeed="max"/>
  <flow id="f_00" type="car" route="r_O2_D1" begin="450" end="460" period="exp(0.37037)" departLane="free" departSpeed="max"/>
  <flow id="f_00" type="car" route="r_O2_D1" begin="460" end="470" period="exp(0.375514)" departLane="free" departSpeed="max"/>
  <flow id="f_00" type="car" route="r_O2_D1" begin="470" end="480" period="exp(0.380658)" departLane="free" departSpeed="max"/>
  <flow id="f_00" type="car" route="r_O2_D1" begin="480" end="490" period="exp(0.385802)" departLane="free" departSpeed="max"/>
  <flow id="f_00" type="car" route="r_O2_D1" begin="490" end="500" period="exp(0.390947)" departLane="free" departSpeed="max"/>
  <flow id="f_00" type="car" route="r_O2_D1" begin="500" end="510" period="exp(0.396091)" departLane="free" departSpeed="max"/>
  <flow id="f_00" type="car" route="r_O2_D1" begin="510" end="520" period="exp(0.401235)" departLane="free" departSpeed="max"/>
  <flow id="f_00" type="car" route="r_O2_D1" begin="520" end="530" period="exp(0.406379)" departLane="free" departSpeed="max"/>
  <flow id="f_00" type="car" route="r_O2_D1" begin="530" end="540" period="exp(0.411523)" departLane="free" departSpeed="max"/>
  <flow id="f_01" type="car" route="r_O2_D1" begin="540" end="1260" period="exp(0.416667)" departLane="free" departSpeed="max"/>
  <flow id="f_02" type="car" route="r_O2_D1" begin="1260" end="1270" period="exp(0.416667)" departLane="free" departSpeed="max"/>
  <flow id="f_02" type="car" route="r_O2_D1" begin="1270" end="1280" period="exp(0.411523)" departLane="free" departSpeed="max"/>
  <flow id="f_02" type="car" route="r_O2_D1" begin="1280" end="1290" period="exp(0.406379)" departLane="free" departSpeed="max"/>
  <flow id="f_02" type="car" route="r_O2_D1" begin="1290" end="1300" period="exp(0.401235)" departLane="free" departSpeed="max"/>
  <flow id="f_02" type="car" route="r_O2_D1" begin="1300" end="1310" period="exp(0.396091)" departLane="free" departSpeed="max"/>
  <flow id="f_02" type="car" route="r_O2_D1" begin="1310" end="1320" period="exp(0.390947)" departLane="free" departSpeed="max"/>
  <flow id="f_02" type="car" route="r_O2_D1" begin="1320" end="1330" period="exp(0.385802)" departLane="free" departSpeed="max"/>
  <flow id="f_02" type="car" route="r_O2_D1" begin="1330" end="1340" period="exp(0.380658)" departLane="free" departSpeed="max"/>
  <flow id="f_02" type="car" route="r_O2_D1" begin="1340" end="1350" period="exp(0.375514)" departLane="free" departSpeed="max"/>
  <flow id="f_02" type="car" route="r_O2_D1" begin="1350" end="1360" period="exp(0.37037)" departLane="free" departSpeed="max"/>
  <flow id="f_02" type="car" route="r_O2_D1" begin="1360" end="1370" period="exp(0.365226)" departLane="free" departSpeed="max"/>
  <flow id="f_02" type="car" route="r_O2_D1" begin="1370" end="1380" period="exp(0.360082)" departLane="free" departSpeed="max"/>
  <flow id="f_02" type="car" route="r_O2_D1" begin="1380" end="1390" period="exp(0.354938)" departLane="free" departSpeed="max"/>
  <flow id="f_02" type="car" route="r_O2_D1" begin="1390" end="1400" period="exp(0.349794)" departLane="free" departSpeed="max"/>
  <flow id="f_02" type="car" route="r_O2_D1" begin="1400" end="1410" period="exp(0.34465)" departLane="free" departSpeed="max"/>
  <flow id="f_02" type="car" route="r_O2_D1" begin="1410" end="1420" period="exp(0.339506)" departLane="free" departSpeed="max"/>
  <flow id="f_02" type="car" route="r_O2_D1" begin="1420" end="1430" period="exp(0.334362)" departLane="free" departSpeed="max"/>
  <flow id="f_02" type="car" route="r_O2_D1" begin="1430" end="1440" period="exp(0.329218)" departLane="free" departSpeed="max"/>
  <flow id="f_02" type="car" route="r_O2_D1" begin="1440" end="1450" period="exp(0.324074)" departLane="free" departSpeed="max"/>
  <flow id="f_02" type="car" route="r_O2_D1" begin="1450" end="1460" period="exp(0.31893)" departLane="free" departSpeed="max"/>
  <flow id="f_02" type="car" route="r_O2_D1" begin="1460" end="1470" period="exp(0.313786)" departLane="free" departSpeed="max"/>
  <flow id="f_02" type="car" route="r_O2_D1" begin="1470" end="1480" period="exp(0.308642)" departLane="free" departSpeed="max"/>
  <flow id="f_02" type="car" route="r_O2_D1" begin="1480" end="1490" period="exp(0.303498)" departLane="free" departSpeed="max"/>
  <flow id="f_02" type="car" route="r_O2_D1" begin="1490" end="1500" period="exp(0.298354)" departLane="free" departSpeed="max"/>
  <flow id="f_02" type="car" route="r_O2_D1" begin="1500" end="1510" period="exp(0.29321)" departLane="free" departSpeed="max"/>
  <flow id="f_02" type="car" route="r_O2_D1" begin="1510" end="1520" period="exp(0.288066)" departLane="free" departSpeed="max"/>
  <flow id="f_02" type="car" route="r_O2_D1" begin="1520" end="1530" period="exp(0.282922)" departLane="free" departSpeed="max"/>
  <flow id="f_02" type="car" route="r_O2_D1" begin="1530" end="1540" period="exp(0.277778)" departLane="free" departSpeed="max"/>
  <flow id="f_02" type="car" route="r_O2_D1" begin="1540" end="1550" period="exp(0.272634)" departLane="free" departSpeed="max"/>
  <flow id="f_02" type="car" route="r_O2_D1" begin="1550" end="1560" period="exp(0.26749)" departLane="free" departSpeed="max"/>
  <flow id="f_02" type="car" route="r_O2_D1" begin="1560" end="1570" period="exp(0.262346)" departLane="free" departSpeed="max"/>
  <flow id="f_02" type="car" route="r_O2_D1" begin="1570" end="1580" period="exp(0.257202)" departLane="free" departSpeed="max"/>
  <flow id="f_02" type="car" route="r_O2_D1" begin="1580" end="1590" period="exp(0.252058)" departLane="free" departSpeed="max"/>
  <flow id="f_02" type="car" route="r_O2_D1" begin="1590" end="1600" period="exp(0.246914)" departLane="free" departSpeed="max"/>
  <flow id="f_02" type="car" route="r_O2_D1" begin="1600" end="1610" period="exp(0.24177)" departLane="free" departSpeed="max"/>
  <flow id="f_02" type="car" route="r_O2_D1" begin="1610" end="1620" period="exp(0.236626)" departLane="free" departSpeed="max"/>
  <flow id="f_02" type="car" route="r_O2_D1" begin="1620" end="1630" period="exp(0.231481)" departLane="free" departSpeed="max"/>
  <flow id="f_02" type="car" route="r_O2_D1" begin="1630" end="1640" period="exp(0.226337)" departLane="free" departSpeed="max"/>
  <flow id="f_02" type="car" route="r_O2_D1" begin="1640" end="1650" period="exp(0.221193)" departLane="free" departSpeed="max"/>
  <flow id="f_02" type="car" route="r_O2_D1" begin="1650" end="1660" period="exp(0.216049)" departLane="free" departSpeed="max"/>
  <flow id="f_02" type="car" route="r_O2_D1" begin="1660" end="1670" period="exp(0.210905)" departLane="free" departSpeed="max"/>
  <flow id="f_02" type="car" route="r_O2_D1" begin="1670" end="1680" period="exp(0.205761)" departLane="free" departSpeed="max"/>
  <flow id="f_02" type="car" route="r_O2_D1" begin="1680" end="1690" period="exp(0.200617)" departLane="free" departSpeed="max"/>
  <flow id="f_02" type="car" route="r_O2_D1" begin="1690" end="1700" period="exp(0.195473)" departLane="free" departSpeed="max"/>
  <flow id="f_02" type="car" route="r_O2_D1" begin="1700" end="1710" period="exp(0.190329)" departLane="free" departSpeed="max"/>
  <flow id="f_02" type="car" route="r_O2_D1" begin="1710" end="1720" period="exp(0.185185)" departLane="free" departSpeed="max"/>
  <flow id="f_02" type="car" route="r_O2_D1" begin="1720" end="1730" period="exp(0.180041)" departLane="free" departSpeed="max"/>
  <flow id="f_02" type="car" route="r_O2_D1" begin="1730" end="1740" period="exp(0.174897)" departLane="free" departSpeed="max"/>
  <flow id="f_02" type="car" route="r_O2_D1" begin="1740" end="1750" period="exp(0.169753)" departLane="free" departSpeed="max"/>
  <flow id="f_02" type="car" route="r_O2_D1" begin="1750" end="1760" period="exp(0.164609)" departLane="free" departSpeed="max"/>
  <flow id="f_02" type="car" route="r_O2_D1" begin="1760" end="1770" period="exp(0.159465)" departLane="free" departSpeed="max"/>
  <flow id="f_02" type="car" route="r_O2_D1" begin="1770" end="1780" period="exp(0.154321)" departLane="free" departSpeed="max"/>
  <flow id="f_02" type="car" route="r_O2_D1" begin="1780" end="1790" period="exp(0.149177)" departLane="free" departSpeed="max"/>
  <flow id="f_02" type="car" route="r_O2_D1" begin="1790" end="1800" period="exp(0.144033)" departLane="free" departSpeed="max"/>
  <flow id="f_03" type="car" route="r_O2_D1" begin="1800" end="9000" period="exp(0.138889)" departLane="free" departSpeed="max"/>
  <flow id="flow10" type="car" route="r_O1_D1" begin="0" end="7200" period="exp(0.972222)" departLane="L1c_0" departSpeed="max"/>
  <flow id="flow11" type="car" route="r_O1_D1" begin="7200" end="7210" period="exp(0.972222)" departLane="L1c_0" departSpeed="max"/>
  <flow id="flow11" type="car" route="r_O1_D1" begin="7210" end="7220" period="exp(0.964506)" departLane="L1c_0" departSpeed="max"/>
  <flow id="flow11" type="car" route="r_O1_D1" begin="7220" end="7230" period="exp(0.95679)" departLane="L1c_0" departSpeed="max"/>
  <flow id="flow11" type="car" route="r_O1_D1" begin="7230" end="7240" period="exp(0.949074)" departLane="L1c_0" departSpeed="max"/>
  <flow id="flow11" type="car" route="r_O1_D1" begin="7240" end="7250" period="exp(0.941358)" departLane="L1c_0" departSpeed="max"/>
  <flow id="flow11" type="car" route="r_O1_D1" begin="7250" end="7260" period="exp(0.933642)" departLane="L1c_0" departSpeed="max"/>
  <flow id="flow11" type="car" route="r_O1_D1" begin="7260" end="7270" period="exp(0.925926)" departLane="L1c_0" departSpeed="max"/>
  <flow id="flow11" type="car" route="r_O1_D1" begin="7270" end="7280" period="exp(0.91821)" departLane="L1c_0" departSpeed="max"/>
  <flow id="flow11" type="car" route="r_O1_D1" begin="7280" end="7290" period="exp(0.910494)" departLane="L1c_0" departSpeed="max"/>
  <flow id="flow11" type="car" route="r_O1_D1" begin="7290" end="7300" period="exp(0.902778)" departLane="L1c_0" departSpeed="max"/>
  <flow id="flow11" type="car" route="r_O1_D1" begin="7300" end="7310" period="exp(0.895062)" departLane="L1c_0" departSpeed="max"/>
  <flow id="flow11" type="car" route="r_O1_D1" begin="7310" end="7320" period="exp(0.887346)" departLane="L1c_0" departSpeed="max"/>
  <flow id="flow11" type="car" route="r_O1_D1" begin="7320" end="7330" period="exp(0.87963)" departLane="L1c_0" departSpeed="max"/>
  <flow id="flow11" type="car" route="r_O1_D1" begin="7330" end="7340" period="exp(0.871914)" departLane="L1c_0" departSpeed="max"/>
  <flow id="flow11" type="car" route="r_O1_D1" begin="7340" end="7350" period="exp(0.864198)" departLane="L1c_0" departSpeed="max"/>
  <flow id="flow11" type="car" route="r_O1_D1" begin="7350" end="7360" period="exp(0.856481)" departLane="L1c_0" departSpeed="max"/>
  <flow id="flow11" type="car" route="r_O1_D1" begin="7360" end="7370" period="exp(0.848765)" departLane="L1c_0" departSpeed="max"/>
  <flow id="flow11" type="car" route="r_O1_D1" begin="7370" end="7380" period="exp(0.841049)" departLane="L1c_0" departSpeed="max"/>
  <flow id="flow11" type="car" route="r_O1_D1" begin="7380" end="7390" period="exp(0.833333)" departLane="L1c_0" departSpeed="max"/>
  <flow id="flow11" type="car" route="r_O1_D1" begin="7390" end="7400" period="exp(0.825617)" departLane="L1c_0" departSpeed="max"/>
  <flow id="flow11" type="car" route="r_O1_D1" begin="7400" end="7410" period="exp(0.817901)" departLane="L1c_0" departSpeed="max"/>
  <flow id="flow11" type="car" route="r_O1_D1" begin="7410" end="7420" period="exp(0.810185)" departLane="L1c_0" departSpeed="max"/>
  <flow id="flow11" type="car" route="r_O1_D1" begin="7420" end="7430" period="exp(0.802469)" departLane="L1c_0" departSpeed="max"/>
  <flow id="flow11" type="car" route="r_O1_D1" begin="7430" end="7440" period="exp(0.794753)" departLane="L1c_0" departSpeed="max"/>
  <flow id="flow11" type="car" route="r_O1_D1" begin="7440" end="7450" period="exp(0.787037)" departLane="L1c_0" departSpeed="max"/>
  <flow id="flow11" type="car" route="r_O1_D1" begin="7450" end="7460" period="exp(0.779321)" departLane="L1c_0" departSpeed="max"/>
  <flow id="flow11" type="car" route="r_O1_D1" begin="7460" end="7470" period="exp(0.771605)" departLane="L1c_0" departSpeed="max"/>
  <flow id="flow11" type="car" route="r_O1_D1" begin="7470" end="7480" period="exp(0.763889)" departLane="L1c_0" departSpeed="max"/>
  <flow id="flow11" type="car" route="r_O1_D1" begin="7480" end="7490" period="exp(0.756173)" departLane="L1c_0" departSpeed="max"/>
  <flow id="flow11" type="car" route="r_O1_D1" begin="7490" end="7500" period="exp(0.748457)" departLane="L1c_0" departSpeed="max"/>
  <flow id="flow11" type="car" route="r_O1_D1" begin="7500" end="7510" period="exp(0.740741)" departLane="L1c_0" departSpeed="max"/>
  <flow id="flow11" type="car" route="r_O1_D1" begin="7510" end="7520" period="exp(0.733025)" departLane="L1c_0" departSpeed="max"/>
  <flow id="flow11" type="car" route="r_O1_D1" begin="7520" end="7530" period="exp(0.725309)" departLane="L1c_0" departSpeed="max"/>
  <flow id="flow11" type="car" route="r_O1_D1" begin="7530" end="7540" period="exp(0.717593)" departLane="L1c_0" departSpeed="max"/>
  <flow id="flow11" type="car" route="r_O1_D1" begin="7540" end="7550" period="exp(0.709877)" departLane="L1c_0" departSpeed="max"/>
  <flow id="flow11" type="car" route="r_O1_D1" begin="7550" end="7560" period="exp(0.70216)" departLane="L1c_0" departSpeed="max"/>
  <flow id="flow11" type="car" route="r_O1_D1" begin="7560" end="7570" period="exp(0.694444)" departLane="L1c_0" departSpeed="max"/>
  <flow id="flow11" type="car" route="r_O1_D1" begin="7570" end="7580" period="exp(0.686728)" departLane="L1c_0" departSpeed="max"/>
  <flow id="flow11" type="car" route="r_O1_D1" begin="7580" end="7590" period="exp(0.679012)" departLane="L1c_0" departSpeed="max"/>
  <flow id="flow11" type="car" route="r_O1_D1" begin="7590" end="7600" period="exp(0.671296)" departLane="L1c_0" departSpeed="max"/>
  <flow id="flow11" type="car" route="r_O1_D1" begin="7600" end="7610" period="exp(0.66358)" departLane="L1c_0" departSpeed="max"/>
  <flow id="flow11" type="car" route="r_O1_D1" begin="7610" end="7620" period="exp(0.655864)" departLane="L1c_0" departSpeed="max"/>
  <flow id="flow11" type="car" route="r_O1_D1" begin="7620" end="7630" period="exp(0.648148)" departLane="L1c_0" departSpeed="max"/>
  <flow id="flow11" type="car" route="r_O1_D1" begin="7630" end="7640" period="exp(0.640432)" departLane="L1c_0" departSpeed="max"/>
  <flow id="flow11" type="car" route="r_O1_D1" begin="7640" end="7650" period="exp(0.632716)" departLane="L1c_0" departSpeed="max"/>
  <flow id="flow11" type="car" route="r_O1_D1" begin="7650" end="7660" period="exp(0.625)" departLane="L1c_0" departSpeed="max"/>
  <flow id="flow11" type="car" route="r_O1_D1" begin="7660" end="7670" period="exp(0.617284)" departLane="L1c_0" departSpeed="max"/>
  <flow id="flow11" type="car" route="r_O1_D1" begin="7670" end="7680" period="exp(0.609568)" departLane="L1c_0" departSpeed="max"/>
  <flow id="flow11" type="car" route="r_O1_D1" begin="7680" end="7690" period="exp(0.601852)" departLane="L1c_0" departSpeed="max"/>
  <flow id="flow11" type="car" route="r_O1_D1" begin="7690" end="7700" period="exp(0.594136)" departLane="L1c_0" departSpeed="max"/>
  <flow id="flow11" type="car" route="r_O1_D1" begin="7700" end="7710" period="exp(0.58642)" departLane="L1c_0" departSpeed="max"/>
  <flow id="flow11" type="car" route="r_O1_D1" begin="7710" end="7720" period="exp(0.578704)" departLane="L1c_0" departSpeed="max"/>
  <flow id="flow11" type="car" route="r_O1_D1" begin="7720" end="7730" period="exp(0.570988)" departLane="L1c_0" departSpeed="max"/>
  <flow id="flow11" type="car" route="r_O1_D1" begin="7730" end="7740" period="exp(0.563272)" departLane="L1c_0" departSpeed="max"/>
  <flow id="flow11" type="car" route="r_O1_D1" begin="7740" end="7750" period="exp(0.555556)" departLane="L1c_0" departSpeed="max"/>
  <flow id="flow11" type="car" route="r_O1_D1" begin="7750" end="7760" period="exp(0.54784)" departLane="L1c_0" departSpeed="max"/>
  <flow id="flow11" type="car" route="r_O1_D1" begin="7760" end="7770" period="exp(0.540123)" departLane="L1c_0" departSpeed="max"/>
  <flow id="flow11" type="car" route="r_O1_D1" begin="7770" end="7780" period="exp(0.532407)" departLane="L1c_0" departSpeed="max"/>
  <flow id="flow11" type="car" route="r_O1_D1" begin="7780" end="7790" period="exp(0.524691)" departLane="L1c_0" departSpeed="max"/>
  <flow id="flow11" type="car" route="r_O1_D1" begin="7790" end="7800" period="exp(0.516975)" departLane="L1c_0" departSpeed="max"/>
  <flow id="flow11" type="car" route="r_O1_D1" begin="7800" end="7810" period="exp(0.509259)" departLane="L1c_0" departSpeed="max"/>
  <flow id="flow11" type="car" route="r_O1_D1" begin="7810" end="7820" period="exp(0.501543)" departLane="L1c_0" departSpeed="max"/>
  <flow id="flow11" type="car" route="r_O1_D1" begin="7820" end="7830" period="exp(0.493827)" departLane="L1c_0" departSpeed="max"/>
  <flow id="flow11" type="car" route="r_O1_D1" begin="7830" end="7840" period="exp(0.486111)" departLane="L1c_0" departSpeed="max"/>
  <flow id="flow11" type="car" route="r_O1_D1" begin="7840" end="7850" period="exp(0.478395)" departLane="L1c_0" departSpeed="max"/>
  <flow id="flow11" type="car" route="r_O1_D1" begin="7850" end="7860" period="exp(0.470679)" departLane="L1c_0" departSpeed="max"/>
  <flow id="flow11" type="car" route="r_O1_D1" begin="7860" end="7870" period="exp(0.462963)" departLane="L1c_0" departSpeed="max"/>
  <flow id="flow11" type="car" route="r_O1_D1" begin="7870" end="7880" period="exp(0.455247)" departLane="L1c_0" departSpeed="max"/>
  <flow id="flow11" type="car" route="r_O1_D1" begin="7880" end="7890" period="exp(0.447531)" departLane="L1c_0" departSpeed="max"/>
  <flow id="flow11" type="car" route="r_O1_D1" begin="7890" end="7900" period="exp(0.439815)" departLane="L1c_0" departSpeed="max"/>
  <flow id="flow11" type="car" route="r_O1_D1" begin="7900" end="7910" period="exp(0.432099)" departLane="L1c_0" departSpeed="max"/>
  <flow id="flow11" type="car" route="r_O1_D1" begin="7910" end="7920" period="exp(0.424383)" departLane="L1c_0" departSpeed="max"/>
  <flow id="flow11" type="car" route="r_O1_D1" begin="7920" end="7930" period="exp(0.416667)" departLane="L1c_0" departSpeed="max"/>
  <flow id="flow11" type="car" route="r_O1_D1" begin="7930" end="7940" period="exp(0.408951)" departLane="L1c_0" departSpeed="max"/>
  <flow id="flow11" type="car" route="r_O1_D1" begin="7940" end="7950" period="exp(0.401235)" departLane="L1c_0" departSpeed="max"/>
  <flow id="flow11" type="car" route="r_O1_D1" begin="7950" end="7960" period="exp(0.393519)" departLane="L1c_0" departSpeed="max"/>
  <flow id="flow11" type="car" route="r_O1_D1" begin="7960" end="7970" period="exp(0.385802)" departLane="L1c_0" departSpeed="max"/>
  <flow id="flow11" type="car" route="r_O1_D1" begin="7970" end="7980" period="exp(0.378086)" departLane="L1c_0" departSpeed="max"/>
  <flow id="flow11" type="car" route="r_O1_D1" begin="7980" end="7990" period="exp(0.37037)" departLane="L1c_0" departSpeed="max"/>
  <flow id="flow11" type="car" route="r_O1_D1" begin="7990" end="8000" period="exp(0.362654)" departLane="L1c_0" departSpeed="max"/>
  <flow id="flow11" type="car" route="r_O1_D1" begin="8000" end="8010" period="exp(0.354938)" departLane="L1c_0" departSpeed="max"/>
  <flow id="flow11" type="car" route="r_O1_D1" begin="8010" end="8020" period="exp(0.347222)" departLane="L1c_0" departSpeed="max"/>
  <flow id="flow11" type="car" route="r_O1_D1" begin="8020" end="8030" period="exp(0.339506)" departLane="L1c_0" departSpeed="max"/>
  <flow id="flow11" type="car" route="r_O1_D1" begin="8030" end="8040" period="exp(0.33179)" departLane="L1c_0" departSpeed="max"/>
  <flow id="flow11" type="car" route="r_O1_D1" begin="8040" end="8050" period="exp(0.324074)" departLane="L1c_0" departSpeed="max"/>
  <flow id="flow11" type="car" route="r_O1_D1" begin="8050" end="8060" period="exp(0.316358)" departLane="L1c_0" departSpeed="max"/>
  <flow id="flow11" type="car" route="r_O1_D1" begin="8060" end="8070" period="exp(0.308642)" departLane="L1c_0" departSpeed="max"/>
  <flow id="flow11" type="car" route="r_O1_D1" begin="8070" end="8080" period="exp(0.300926)" departLane="L1c_0" departSpeed="max"/>
  <flow id="flow11" type="car" route="r_O1_D1" begin="8080" end="8090" period="exp(0.29321)" departLane="L1c_0" departSpeed="max"/>
  <flow id="flow11" type="car" route="r_O1_D1" begin="8090" end="8100" period="exp(0.285494)" departLane="L1c_0" departSpeed="max"/>
  <flow id="flow12" type="car" route="r_O1_D1" begin="8100" end="9000" period="exp(0.277778)" departLane="L1c_0" departSpeed="max"/>
  <flow id="flow20" type="car" route="r_O1_D1" begin="0" end="7200" period="exp(0.972222)" departLane="L1c_1" departSpeed="20.0"/>
  <flow id="flow21" type="car" route="r_O1_D1" begin="7200" end="7210" period="exp(0.972222)" departLane="L1c_1" departSpeed="20.0"/>
  <flow id="flow21" type="car" route="r_O1_D1" begin="7210" end="7220" period="exp(0.964506)" departLane="L1c_1" departSpeed="20.0"/>
  <flow id="flow21" type="car" route="r_O1_D1" begin="7220" end="7230" period="exp(0.95679)" departLane="L1c_1" departSpeed="20.0"/>
  <flow id="flow21" type="car" route="r_O1_D1" begin="7230" end="7240" period="exp(0.949074)" departLane="L1c_1" departSpeed="20.0"/>
  <flow id="flow21" type="car" route="r_O1_D1" begin="7240" end="7250" period="exp(0.941358)" departLane="L1c_1" departSpeed="20.0"/>
  <flow id="flow21" type="car" route="r_O1_D1" begin="7250" end="7260" period="exp(0.933642)" departLane="L1c_1" departSpeed="20.0"/>
  <flow id="flow21" type="car" route="r_O1_D1" begin="7260" end="7270" period="exp(0.925926)" departLane="L1c_1" departSpeed="20.0"/>
  <flow id="flow21" type="car" route="r_O1_D1" begin="7270" end="7280" period="exp(0.91821)" departLane="L1c_1" departSpeed="20.0"/>
  <flow id="flow21" type="car" route="r_O1_D1" begin="7280" end="7290" period="exp(0.910494)" departLane="L1c_1" departSpeed="20.0"/>
  <flow id="flow21" type="car" route="r_O1_D1" begin="7290" end="7300" period="exp(0.902778)" departLane="L1c_1" departSpeed="20.0"/>
  <flow id="flow21" type="car" route="r_O1_D1" begin="7300" end="7310" period="exp(0.895062)" departLane="L1c_1" departSpeed="20.0"/>
  <flow id="flow21" type="car" route="r_O1_D1" begin="7310" end="7320" period="exp(0.887346)" departLane="L1c_1" departSpeed="20.0"/>
  <flow id="flow21" type="car" route="r_O1_D1" begin="7320" end="7330" period="exp(0.87963)" departLane="L1c_1" departSpeed="20.0"/>
  <flow id="flow21" type="car" route="r_O1_D1" begin="7330" end="7340" period="exp(0.871914)" departLane="L1c_1" departSpeed="20.0"/>
  <flow id="flow21" type="car" route="r_O1_D1" begin="7340" end="7350" period="exp(0.864198)" departLane="L1c_1" departSpeed="20.0"/>
  <flow id="flow21" type="car" route="r_O1_D1" begin="7350" end="7360" period="exp(0.856481)" departLane="L1c_1" departSpeed="20.0"/>
  <flow id="flow21" type="car" route="r_O1_D1" begin="7360" end="7370" period="exp(0.848765)" departLane="L1c_1" departSpeed="20.0"/>
  <flow id="flow21" type="car" route="r_O1_D1" begin="7370" end="7380" period="exp(0.841049)" departLane="L1c_1" departSpeed="20.0"/>
  <flow id="flow21" type="car" route="r_O1_D1" begin="7380" end="7390" period="exp(0.833333)" departLane="L1c_1" departSpeed="20.0"/>
  <flow id="flow21" type="car" route="r_O1_D1" begin="7390" end="7400" period="exp(0.825617)" departLane="L1c_1" departSpeed="20.0"/>
  <flow id="flow21" type="car" route="r_O1_D1" begin="7400" end="7410" period="exp(0.817901)" departLane="L1c_1" departSpeed="20.0"/>