<?xml version="1.0" encoding="UTF-8"?>

<!-- generated on 2025-03-18 11:06:22 by Eclipse SUMO netedit Version 1.22.0
-->

<routes xmlns:xsi="http://www.w3.org/2001/XMLSchema-instance" xsi:noNamespaceSchemaLocation="http://sumo.dlr.de/xsd/routes_file.xsd">
    <!-- Vehicles, persons and containers (sorted by depart) -->
    <flow id="f_0" begin="0.00" from="O2" to="D1" via="L2" end="3600.00" vehsPerHour="500"/>
    <flow id="flow1" begin="0.00" color="red" from="O1" to="D1" via="L1a L1b L1c L2" end="3600.00" vehsPerHour="3495.15"/>
    <flow id="flow2" begin="0.00" departLane="1" color="magenta" from="O1" to="D1" via="L1a L1b L1c L2" end="3600.00" vehsPerHour="3495.15"/>
</routes>
