<?xml version="1.0" encoding="UTF-8"?>

<!-- generated on 2025-04-09 22:43:37 by Eclipse SUMO netedit Version 1.22.0
-->

<routes xmlns:xsi="http://www.w3.org/2001/XMLSchema-instance" xsi:noNamespaceSchemaLocation="http://sumo.dlr.de/xsd/routes_file.xsd">
    <!-- VTypes -->
    <vType id="car" length="5.00" minGap="2.50" maxSpeed="33.33" guiShape="passenger" accel="2.6" decel="4.5" sigma="0.5"/>
    <!-- Routes -->
    <route id="r_O1_D1" edges="O1 L1a L1b L1c L2 D1"/>
    <route id="r_O2_D1" edges="O2 O2.206 L2 D1"/>
    <!-- Vehicles, persons and containers (sorted by depart) -->
    <flow id="f_0_0" type="car" begin="0.00" departLane="free" departSpeed="max" route="r_O2_D1" end="10.00" period="exp(0.14)"/>
    <flow id="flow1_0" type="car" begin="0.00" departLane="free" departSpeed="max" route="r_O1_D1" end="7200.00" period="exp(0.97)"/>
    <flow id="flow2_0" type="car" begin="0.00" departLane="free" departSpeed="20.00" route="r_O1_D1" end="7200.00" period="exp(0.97)"/>
    <flow id="f_0_1" type="car" begin="10.00" departLane="free" departSpeed="max" route="r_O2_D1" end="20.00" period="exp(0.14)"/>
    <flow id="f_0_2" type="car" begin="20.00" departLane="free" departSpeed="max" route="r_O2_D1" end="30.00" period="exp(0.15)"/>
    <flow id="f_0_3" type="car" begin="30.00" departLane="free" departSpeed="max" route="r_O2_D1" end="40.00" period="exp(0.15)"/>
    <flow id="f_0_4" type="car" begin="40.00" departLane="free" departSpeed="max" route="r_O2_D1" end="50.00" period="exp(0.16)"/>
    <flow id="f_0_5" type="car" begin="50.00" departLane="free" departSpeed="max" route="r_O2_D1" end="60.00" period="exp(0.16)"/>
    <flow id="f_0_6" type="car" begin="60.00" departLane="free" departSpeed="max" route="r_O2_D1" end="70.00" period="exp(0.17)"/>
    <flow id="f_0_7" type="car" begin="70.00" departLane="free" departSpeed="max" route="r_O2_D1" end="80.00" period="exp(0.17)"/>
    <flow id="f_0_8" type="car" begin="80.00" departLane="free" departSpeed="max" route="r_O2_D1" end="90.00" period="exp(0.18)"/>
    <flow id="f_0_9" type="car" begin="90.00" departLane="free" departSpeed="max" route="r_O2_D1" end="100.00" period="exp(0.19)"/>
    <flow id="f_0_10" type="car" begin="100.00" departLane="free" departSpeed="max" route="r_O2_D1" end="110.00" period="exp(0.19)"/>
    <flow id="f_0_11" type="car" begin="110.00" departLane="free" departSpeed="max" route="r_O2_D1" end="120.00" period="exp(0.2)"/>
    <flow id="f_0_12" type="car" begin="120.00" departLane="free" departSpeed="max" route="r_O2_D1" end="130.00" period="exp(0.2)"/>
    <flow id="f_0_13" type="car" begin="130.00" departLane="free" departSpeed="max" route="r_O2_D1" end="140.00" period="exp(0.21)"/>
    <flow id="f_0_14" type="car" begin="140.00" departLane="free" departSpeed="max" route="r_O2_D1" end="150.00" period="exp(0.21)"/>
    <flow id="f_0_15" type="car" begin="150.00" departLane="free" departSpeed="max" route="r_O2_D1" end="160.00" period="exp(0.22)"/>
    <flow id="f_0_16" type="car" begin="160.00" departLane="free" departSpeed="max" route="r_O2_D1" end="170.00" period="exp(0.22)"/>
    <flow id="f_0_17" type="car" begin="170.00" departLane="free" departSpeed="max" route="r_O2_D1" end="180.00" period="exp(0.23)"/>
    <flow id="f_0_18" type="car" begin="180.00" departLane="free" departSpeed="max" route="r_O2_D1" end="190.00" period="exp(0.23)"/>
    <flow id="f_0_19" type="car" begin="190.00" departLane="free" departSpeed="max" route="r_O2_D1" end="200.00" period="exp(0.24)"/>
    <flow id="f_0_20" type="car" begin="200.00" departLane="free" departSpeed="max" route="r_O2_D1" end="210.00" period="exp(0.24)"/>
    <flow id="f_0_21" type="car" begin="210.00" departLane="free" departSpeed="max" route="r_O2_D1" end="220.00" period="exp(0.25)"/>
    <flow id="f_0_22" type="car" begin="220.00" departLane="free" departSpeed="max" route="r_O2_D1" end="230.00" period="exp(0.25)"/>
    <flow id="f_0_23" type="car" begin="230.00" departLane="free" departSpeed="max" route="r_O2_D1" end="240.00" period="exp(0.26)"/>
    <flow id="f_0_24" type="car" begin="240.00" departLane="free" departSpeed="max" route="r_O2_D1" end="250.00" period="exp(0.26)"/>
    <flow id="f_0_25" type="car" begin="250.00" departLane="free" departSpeed="max" route="r_O2_D1" end="260.00" period="exp(0.27)"/>
    <flow id="f_0_26" type="car" begin="260.00" departLane="free" departSpeed="max" route="r_O2_D1" end="270.00" period="exp(0.27)"/>
    <flow id="f_0_27" type="car" begin="270.00" departLane="free" departSpeed="max" route="r_O2_D1" end="280.00" period="exp(0.28)"/>
    <flow id="f_0_28" type="car" begin="280.00" departLane="free" departSpeed="max" route="r_O2_D1" end="290.00" period="exp(0.28)"/>
    <flow id="f_0_29" type="car" begin="290.00" departLane="free" departSpeed="max" route="r_O2_D1" end="300.00" period="exp(0.29)"/>
    <flow id="f_0_30" type="car" begin="300.00" departLane="free" departSpeed="max" route="r_O2_D1" end="310.00" period="exp(0.29)"/>
    <flow id="f_0_31" type="car" begin="310.00" departLane="free" departSpeed="max" route="r_O2_D1" end="320.00" period="exp(0.3)"/>
    <flow id="f_0_32" type="car" begin="320.00" departLane="free" departSpeed="max" route="r_O2_D1" end="330.00" period="exp(0.3)"/>
    <flow id="f_0_33" type="car" begin="330.00" departLane="free" departSpeed="max" route="r_O2_D1" end="340.00" period="exp(0.31)"/>
    <flow id="f_0_34" type="car" begin="340.00" departLane="free" departSpeed="max" route="r_O2_D1" end="350.00" period="exp(0.31)"/>
    <flow id="f_0_35" type="car" begin="350.00" departLane="free" departSpeed="max" route="r_O2_D1" end="360.00" period="exp(0.32)"/>
    <flow id="f_0_36" type="car" begin="360.00" departLane="free" departSpeed="max" route="r_O2_D1" end="370.00" period="exp(0.32)"/>
    <flow id="f_0_37" type="car" begin="370.00" departLane="free" departSpeed="max" route="r_O2_D1" end="380.00" period="exp(0.33)"/>
    <flow id="f_0_38" type="car" begin="380.00" departLane="free" departSpeed="max" route="r_O2_D1" end="390.00" period="exp(0.33)"/>
    <flow id="f_0_39" type="car" begin="390.00" departLane="free" departSpeed="max" route="r_O2_D1" end="400.00" period="exp(0.34)"/>
    <flow id="f_0_40" type="car" begin="400.00" departLane="free" departSpeed="max" route="r_O2_D1" end="410.00" period="exp(0.34)"/>
    <flow id="f_0_41" type="car" begin="410.00" departLane="free" departSpeed="max" route="r_O2_D1" end="420.00" period="exp(0.35)"/>
    <flow id="f_0_42" type="car" begin="420.00" departLane="free" departSpeed="max" route="r_O2_D1" end="430.00" period="exp(0.35)"/>
    <flow id="f_0_43" type="car" begin="430.00" departLane="free" departSpeed="max" route="r_O2_D1" end="440.00" period="exp(0.36)"/>
    <flow id="f_0_44" type="car" begin="440.00" departLane="free" departSpeed="max" route="r_O2_D1" end="450.00" period="exp(0.37)"/>
    <flow id="f_0_45" type="car" begin="450.00" departLane="free" departSpeed="max" route="r_O2_D1" end="460.00" period="exp(0.37)"/>
    <flow id="f_0_46" type="car" begin="460.00" departLane="free" departSpeed="max" route="r_O2_D1" end="470.00" period="exp(0.38)"/>
    <flow id="f_0_47" type="car" begin="470.00" departLane="free" departSpeed="max" route="r_O2_D1" end="480.00" period="exp(0.38)"/>
    <flow id="f_0_48" type="car" begin="480.00" departLane="free" departSpeed="max" route="r_O2_D1" end="490.00" period="exp(0.39)"/>
    <flow id="f_0_49" type="car" begin="490.00" departLane="free" departSpeed="max" route="r_O2_D1" end="500.00" period="exp(0.39)"/>
    <flow id="f_0_50" type="car" begin="500.00" departLane="free" departSpeed="max" route="r_O2_D1" end="510.00" period="exp(0.4)"/>
    <flow id="f_0_51" type="car" begin="510.00" departLane="free" departSpeed="max" route="r_O2_D1" end="520.00" period="exp(0.4)"/>
    <flow id="f_0_52" type="car" begin="520.00" departLane="free" departSpeed="max" route="r_O2_D1" end="530.00" period="exp(0.41)"/>
    <flow id="f_0_53" type="car" begin="530.00" departLane="free" departSpeed="max" route="r_O2_D1" end="540.00" period="exp(0.41)"/>
    <flow id="f_0_54" type="car" begin="540.00" departLane="free" departSpeed="max" route="r_O2_D1" end="1260.00" period="exp(0.42)"/>
    <flow id="f_0_55" type="car" begin="1260.00" departLane="free" departSpeed="max" route="r_O2_D1" end="1270.00" period="exp(0.42)"/>
    <flow id="f_0_56" type="car" begin="1270.00" departLane="free" departSpeed="max" route="r_O2_D1" end="1280.00" period="exp(0.41)"/>
    <flow id="f_0_57" type="car" begin="1280.00" departLane="free" departSpeed="max" route="r_O2_D1" end="1290.00" period="exp(0.41)"/>
    <flow id="f_0_58" type="car" begin="1290.00" departLane="free" departSpeed="max" route="r_O2_D1" end="1300.00" period="exp(0.4)"/>
    <flow id="f_0_59" type="car" begin="1300.00" departLane="free" departSpeed="max" route="r_O2_D1" end="1310.00" period="exp(0.4)"/>
    <flow id="f_0_60" type="car" begin="1310.00" departLane="free" departSpeed="max" route="r_O2_D1" end="1320.00" period="exp(0.39)"/>
    <flow id="f_0_61" type="car" begin="1320.00" departLane="free" departSpeed="max" route="r_O2_D1" end="1330.00" period="exp(0.39)"/>
    <flow id="f_0_62" type="car" begin="1330.00" departLane="free" departSpeed="max" route="r_O2_D1" end="1340.00" period="exp(0.38)"/>
    <flow id="f_0_63" type="car" begin="1340.00" departLane="free" departSpeed="max" route="r_O2_D1" end="1350.00" period="exp(0.38)"/>
    <flow id="f_0_64" type="car" begin="1350.00" departLane="free" departSpeed="max" route="r_O2_D1" end="1360.00" period="exp(0.37)"/>
    <flow id="f_0_65" type="car" begin="1360.00" departLane="free" departSpeed="max" route="r_O2_D1" end="1370.00" period="exp(0.37)"/>
    <flow id="f_0_66" type="car" begin="1370.00" departLane="free" departSpeed="max" route="r_O2_D1" end="1380.00" period="exp(0.36)"/>
    <flow id="f_0_67" type="car" begin="1380.00" departLane="free" departSpeed="max" route="r_O2_D1" end="1390.00" period="exp(0.35)"/>
    <flow id="f_0_68" type="car" begin="1390.00" departLane="free" departSpeed="max" route="r_O2_D1" end="1400.00" period="exp(0.35)"/>
    <flow id="f_0_69" type="car" begin="1400.00" departLane="free" departSpeed="max" route="r_O2_D1" end="1410.00" period="exp(0.34)"/>
    <flow id="f_0_70" type="car" begin="1410.00" departLane="free" departSpeed="max" route="r_O2_D1" end="1420.00" period="exp(0.34)"/>
    <flow id="f_0_71" type="car" begin="1420.00" departLane="free" departSpeed="max" route="r_O2_D1" end="1430.00" period="exp(0.33)"/>
    <flow id="f_0_72" type="car" begin="1430.00" departLane="free" departSpeed="max" route="r_O2_D1" end="1440.00" period="exp(0.33)"/>
    <flow id="f_0_73" type="car" begin="1440.00" departLane="free" departSpeed="max" route="r_O2_D1" end="1450.00" period="exp(0.32)"/>
    <flow id="f_0_74" type="car" begin="1450.00" departLane="free" departSpeed="max" route="r_O2_D1" end="1460.00" period="exp(0.32)"/>
    <flow id="f_0_75" type="car" begin="1460.00" departLane="free" departSpeed="max" route="r_O2_D1" end="1470.00" period="exp(0.31)"/>
    <flow id="f_0_76" type="car" begin="1470.00" departLane="free" departSpeed="max" route="r_O2_D1" end="1480.00" period="exp(0.31)"/>
    <flow id="f_0_77" type="car" begin="1480.00" departLane="free" departSpeed="max" route="r_O2_D1" end="1490.00" period="exp(0.3)"/>
    <flow id="f_0_78" type="car" begin="1490.00" departLane="free" departSpeed="max" route="r_O2_D1" end="1500.00" period="exp(0.3)"/>
    <flow id="f_0_79" type="car" begin="1500.00" departLane="free" departSpeed="max" route="r_O2_D1" end="1510.00" period="exp(0.29)"/>
    <flow id="f_0_80" type="car" begin="1510.00" departLane="free" departSpeed="max" route="r_O2_D1" end="1520.00" period="exp(0.29)"/>
    <flow id="f_0_81" type="car" begin="1520.00" departLane="free" departSpeed="max" route="r_O2_D1" end="1530.00" period="exp(0.28)"/>
    <flow id="f_0_82" type="car" begin="1530.00" departLane="free" departSpeed="max" route="r_O2_D1" end="1540.00" period="exp(0.28)"/>
    <flow id="f_0_83" type="car" begin="1540.00" departLane="free" departSpeed="max" route="r_O2_D1" end="1550.00" period="exp(0.27)"/>
    <flow id="f_0_84" type="car" begin="1550.00" departLane="free" departSpeed="max" route="r_O2_D1" end="1560.00" period="exp(0.27)"/>
    <flow id="f_0_85" type="car" begin="1560.00" departLane="free" departSpeed="max" route="r_O2_D1" end="1570.00" period="exp(0.26)"/>
    <flow id="f_0_86" type="car" begin="1570.00" departLane="free" departSpeed="max" route="r_O2_D1" end="1580.00" period="exp(0.26)"/>
    <flow id="f_0_87" type="car" begin="1580.00" departLane="free" departSpeed="max" route="r_O2_D1" end="1590.00" period="exp(0.25)"/>
    <flow id="f_0_88" type="car" begin="1590.00" departLane="free" departSpeed="max" route="r_O2_D1" end="1600.00" period="exp(0.25)"/>
    <flow id="f_0_89" type="car" begin="1600.00" departLane="free" departSpeed="max" route="r_O2_D1" end="1610.00" period="exp(0.24)"/>
    <flow id="f_0_90" type="car" begin="1610.00" departLane="free" departSpeed="max" route="r_O2_D1" end="1620.00" period="exp(0.24)"/>
    <flow id="f_0_91" type="car" begin="1620.00" departLane="free" departSpeed="max" route="r_O2_D1" end="1630.00" period="exp(0.23)"/>
    <flow id="f_0_92" type="car" begin="1630.00" departLane="free" departSpeed="max" route="r_O2_D1" end="1640.00" period="exp(0.23)"/>
    <flow id="f_0_93" type="car" begin="1640.00" departLane="free" departSpeed="max" route="r_O2_D1" end="1650.00" period="exp(0.22)"/>
    <flow id="f_0_94" type="car" begin="1650.00" departLane="free" departSpeed="max" route="r_O2_D1" end="1660.00" period="exp(0.22)"/>
    <flow id="f_0_95" type="car" begin="1660.00" departLane="free" departSpeed="max" route="r_O2_D1" end="1670.00" period="exp(0.21)"/>
    <flow id="f_0_96" type="car" begin="1670.00" departLane="free" departSpeed="max" route="r_O2_D1" end="1680.00" period="exp(0.21)"/>
    <flow id="f_0_97" type="car" begin="1680.00" departLane="free" departSpeed="max" route="r_O2_D1" end="1690.00" period="exp(0.2)"/>
    <flow id="f_0_98" type="car" begin="1690.00" departLane="free" departSpeed="max" route="r_O2_D1" end="1700.00" period="exp(0.2)"/>
    <flow id="f_0_99" type="car" begin="1700.00" departLane="free" departSpeed="max" route="r_O2_D1" end="1710.00" period="exp(0.19)"/>
    <flow id="f_0_100" type="car" begin="1710.00" departLane="free" departSpeed="max" route="r_O2_D1" end="1720.00" period="exp(0.19)"/>
    <flow id="f_0_101" type="car" begin="1720.00" departLane="free" departSpeed="max" route="r_O2_D1" end="1730.00" period="exp(0.18)"/>
    <flow id="f_0_102" type="car" begin="1730.00" departLane="free" departSpeed="max" route="r_O2_D1" end="1740.00" period="exp(0.17)"/>
    <flow id="f_0_103" type="car" begin="1740.00" departLane="free" departSpeed="max" route="r_O2_D1" end="1750.00" period="exp(0.17)"/>
    <flow id="f_0_104" type="car" begin="1750.00" departLane="free" departSpeed="max" route="r_O2_D1" end="1760.00" period="exp(0.16)"/>
    <flow id="f_0_105" type="car" begin="1760.00" departLane="free" departSpeed="max" route="r_O2_D1" end="1770.00" period="exp(0.16)"/>
    <flow id="f_0_106" type="car" begin="1770.00" departLane="free" departSpeed="max" route="r_O2_D1" end="1780.00" period="exp(0.15)"/>
    <flow id="f_0_107" type="car" begin="1780.00" departLane="free" departSpeed="max" route="r_O2_D1" end="1790.00" period="exp(0.15)"/>
    <flow id="f_0_108" type="car" begin="1790.00" departLane="free" departSpeed="max" route="r_O2_D1" end="1800.00" period="exp(0.14)"/>
    <flow id="f_0_109" type="car" begin="1800.00" departLane="free" departSpeed="max" route="r_O2_D1" end="9000.00" period="exp(0.14)"/>
    <flow id="flow1_1" type="car" begin="7200.00" departLane="free" departSpeed="max" route="r_O1_D1" end="7210.00" period="exp(0.97)"/>
    <flow id="flow2_1" type="car" begin="7200.00" departLane="free" departSpeed="20.00" route="r_O1_D1" end="7210.00" period="exp(0.97)"/>
    <flow id="flow1_2" type="car" begin="7210.00" departLane="free" departSpeed="max" route="r_O1_D1" end="7220.00" period="exp(0.96)"/>
    <flow id="flow2_2" type="car" begin="7210.00" departLane="free" departSpeed="20.00" route="r_O1_D1" end="7220.00" period="exp(0.96)"/>
    <flow id="flow1_3" type="car" begin="7220.00" departLane="free" departSpeed="max" route="r_O1_D1" end="7230.00" period="exp(0.96)"/>
    <flow id="flow2_3" type="car" begin="7220.00" departLane="free" departSpeed="20.00" route="r_O1_D1" end="7230.00" period="exp(0.96)"/>
    <flow id="flow1_4" type="car" begin="7230.00" departLane="free" departSpeed="max" route="r_O1_D1" end="7240.00" period="exp(0.95)"/>
    <flow id="flow2_4" type="car" begin="7230.00" departLane="free" departSpeed="20.00" route="r_O1_D1" end="7240.00" period="exp(0.95)"/>
    <flow id="flow1_5" type="car" begin="7240.00" departLane="free" departSpeed="max" route="r_O1_D1" end="7250.00" period="exp(0.94)"/>
    <flow id="flow2_5" type="car" begin="7240.00" departLane="free" departSpeed="20.00" route="r_O1_D1" end="7250.00" period="exp(0.94)"/>
    <flow id="flow1_6" type="car" begin="7250.00" departLane="free" departSpeed="max" route="r_O1_D1" end="7260.00" period="exp(0.93)"/>
    <flow id="flow2_6" type="car" begin="7250.00" departLane="free" departSpeed="20.00" route="r_O1_D1" end="7260.00" period="exp(0.93)"/>
    <flow id="flow1_7" type="car" begin="7260.00" departLane="free" departSpeed="max" route="r_O1_D1" end="7270.00" period="exp(0.93)"/>
    <flow id="flow2_7" type="car" begin="7260.00" departLane="free" departSpeed="20.00" route="r_O1_D1" end="7270.00" period="exp(0.93)"/>
    <flow id="flow1_8" type="car" begin="7270.00" departLane="free" departSpeed="max" route="r_O1_D1" end="7280.00" period="exp(0.92)"/>
    <flow id="flow2_8" type="car" begin="7270.00" departLane="free" departSpeed="20.00" route="r_O1_D1" end="7280.00" period="exp(0.92)"/>
    <flow id="flow1_9" type="car" begin="7280.00" departLane="free" departSpeed="max" route="r_O1_D1" end="7290.00" period="exp(0.91)"/>
    <flow id="flow2_9" type="car" begin="7280.00" departLane="free" departSpeed="20.00" route="r_O1_D1" end="7290.00" period="exp(0.91)"/>
    <flow id="flow1_10" type="car" begin="7290.00" departLane="free" departSpeed="max" route="r_O1_D1" end="7300.00" period="exp(0.9)"/>
    <flow id="flow2_10" type="car" begin="7290.00" departLane="free" departSpeed="20.00" route="r_O1_D1" end="7300.00" period="exp(0.9)"/>
    <flow id="flow1_11" type="car" begin="7300.00" departLane="free" departSpeed="max" route="r_O1_D1" end="7310.00" period="exp(0.9)"/>
    <flow id="flow2_11" type="car" begin="7300.00" departLane="free" departSpeed="20.00" route="r_O1_D1" end="7310.00" period="exp(0.9)"/>
    <flow id="flow1_12" type="car" begin="7310.00" departLane="free" departSpeed="max" route="r_O1_D1" end="7320.00" period="exp(0.89)"/>
    <flow id="flow2_12" type="car" begin="7310.00" departLane="free" departSpeed="20.00" route="r_O1_D1" end="7320.00" period="exp(0.89)"/>
    <flow id="flow1_13" type="car" begin="7320.00" departLane="free" departSpeed="max" route="r_O1_D1" end="7330.00" period="exp(0.88)"/>
    <flow id="flow2_13" type="car" begin="7320.00" departLane="free" departSpeed="20.00" route="r_O1_D1" end="7330.00" period="exp(0.88)"/>
    <flow id="flow1_14" type="car" begin="7330.00" departLane="free" departSpeed="max" route="r_O1_D1" end="7340.00" period="exp(0.87)"/>
    <flow id="flow2_14" type="car" begin="7330.00" departLane="free" departSpeed="20.00" route="r_O1_D1" end="7340.00" period="exp(0.87)"/>
    <flow id="flow1_15" type="car" begin="7340.00" departLane="free" departSpeed="max" route="r_O1_D1" end="7350.00" period="exp(0.86)"/>
    <flow id="flow2_15" type="car" begin="7340.00" departLane="free" departSpeed="20.00" route="r_O1_D1" end="7350.00" period="exp(0.86)"/>
    <flow id="flow1_16" type="car" begin="7350.00" departLane="free" departSpeed="max" route="r_O1_D1" end="7360.00" period="exp(0.86)"/>
    <flow id="flow2_16" type="car" begin="7350.00" departLane="free" departSpeed="20.00" route="r_O1_D1" end="7360.00" period="exp(0.86)"/>
    <flow id="flow1_17" type="car" begin="7360.00" departLane="free" departSpeed="max" route="r_O1_D1" end="7370.00" period="exp(0.85)"/>
    <flow id="flow2_17" type="car" begin="7360.00" departLane="free" departSpeed="20.00" route="r_O1_D1" end="7370.00" period="exp(0.85)"/>
    <flow id="flow1_18" type="car" begin="7370.00" departLane="free" departSpeed="max" route="r_O1_D1" end="7380.00" period="exp(0.84)"/>
    <flow id="flow2_18" type="car" begin="7370.00" departLane="free" departSpeed="20.00" route="r_O1_D1" end="7380.00" period="exp(0.84)"/>
    <flow id="flow1_19" type="car" begin="7380.00" departLane="free" departSpeed="max" route="r_O1_D1" end="7390.00" period="exp(0.83)"/>
    <flow id="flow2_19" type="car" begin="7380.00" departLane="free" departSpeed="20.00" route="r_O1_D1" end="7390.00" period="exp(0.83)"/>
    <flow id="flow1_20" type="car" begin="7390.00" departLane="free" departSpeed="max" route="r_O1_D1" end="7400.00" period="exp(0.83)"/>
    <flow id="flow2_20" type="car" begin="7390.00" departLane="free" departSpeed="20.00" route="r_O1_D1" end="7400.00" period="exp(0.83)"/>
    <flow id="flow1_21" type="car" begin="7400.00" departLane="free" departSpeed="max" route="r_O1_D1" end="7410.00" period="exp(0.82)"/>
    <flow id="flow2_21" type="car" begin="7400.00" departLane="free" departSpeed="20.00" route="r_O1_D1" end="7410.00" period="exp(0.82)"/>
    <flow id="flow1_22" type="car" begin="7410.00" departLane="free" departSpeed="max" route="r_O1_D1" end="7420.00" period="exp(0.81)"/>
    <flow id="flow2_22" type="car" begin="7410.00" departLane="free" departSpeed="20.00" route="r_O1_D1" end="7420.00" period="exp(0.81)"/>
    <flow id="flow1_23" type="car" begin="7420.00" departLane="free" departSpeed="max" route="r_O1_D1" end="7430.00" period="exp(0.8)"/>
    <flow id="flow2_23" type="car" begin="7420.00" departLane="free" departSpeed="20.00" route="r_O1_D1" end="7430.00" period="exp(0.8)"/>
    <flow id="flow1_24" type="car" begin="7430.00" departLane="free" departSpeed="max" route="r_O1_D1" end="7440.00" period="exp(0.79)"/>
    <flow id="flow2_24" type="car" begin="7430.00" departLane="free" departSpeed="20.00" route="r_O1_D1" end="7440.00" period="exp(0.79)"/>
    <flow id="flow1_25" type="car" begin="7440.00" departLane="free" departSpeed="max" route="r_O1_D1" end="7450.00" period="exp(0.79)"/>
    <flow id="flow2_25" type="car" begin="7440.00" departLane="free" departSpeed="20.00" route="r_O1_D1" end="7450.00" period="exp(0.79)"/>
    <flow id="flow1_26" type="car" begin="7450.00" departLane="free" departSpeed="max" route="r_O1_D1" end="7460.00" period="exp(0.78)"/>
    <flow id="flow2_26" type="car" begin="7450.00" departLane="free" departSpeed="20.00" route="r_O1_D1" end="7460.00" period="exp(0.78)"/>
    <flow id="flow1_27" type="car" begin="7460.00" departLane="free" departSpeed="max" route="r_O1_D1" end="7470.00" period="exp(0.77)"/>
    <flow id="flow2_27" type="car" begin="7460.00" departLane="free" departSpeed="20.00" route="r_O1_D1" end="7470.00" period="exp(0.77)"/>
    <flow id="flow1_28" type="car" begin="7470.00" departLane="free" departSpeed="max" route="r_O1_D1" end="7480.00" period="exp(0.76)"/>
    <flow id="flow2_28" type="car" begin="7470.00" departLane="free" departSpeed="20.00" route="r_O1_D1" end="7480.00" period="exp(0.76)"/>
    <flow id="flow1_29" type="car" begin="7480.00" departLane="free" departSpeed="max" route="r_O1_D1" end="7490.00" period="exp(0.76)"/>
    <flow id="flow2_29" type="car" begin="7480.00" departLane="free" departSpeed="20.00" route="r_O1_D1" end="7490.00" period="exp(0.76)"/>
    <flow id="flow1_30" type="car" begin="7490.00" departLane="free" departSpeed="max" route="r_O1_D1" end="7500.00" period="exp(0.75)"/>
    <flow id="flow2_30" type="car" begin="7490.00" departLane="free" departSpeed="20.00" route="r_O1_D1" end="7500.00" period="exp(0.75)"/>
    <flow id="flow1_31" type="car" begin="7500.00" departLane="free" departSpeed="max" route="r_O1_D1" end="7510.00" period="exp(0.74)"/>
    <flow id="flow2_31" type="car" begin="7500.00" departLane="free" departSpeed="20.00" route="r_O1_D1" end="7510.00" period="exp(0.74)"/>
    <flow id="flow1_32" type="car" begin="7510.00" departLane="free" departSpeed="max" route="r_O1_D1" end="7520.00" period="exp(0.73)"/>
    <flow id="flow2_32" type="car" begin="7510.00" departLane="free" departSpeed="20.00" route="r_O1_D1" end="7520.00" period="exp(0.73)"/>
    <flow id="flow1_33" type="car" begin="7520.00" departLane="free" departSpeed="max" route="r_O1_D1" end="7530.00" period="exp(0.73)"/>
    <flow id="flow2_33" type="car" begin="7520.00" departLane="free" departSpeed="20.00" route="r_O1_D1" end="7530.00" period="exp(0.73)"/>
    <flow id="flow1_34" type="car" begin="7530.00" departLane="free" departSpeed="max" route="r_O1_D1" end="7540.00" period="exp(0.72)"/>
    <flow id="flow2_34" type="car" begin="7530.00" departLane="free" departSpeed="20.00" route="r_O1_D1" end="7540.00" period="exp(0.72)"/>
    <flow id="flow1_35" type="car" begin="7540.00" departLane="free" departSpeed="max" route="r_O1_D1" end="7550.00" period="exp(0.71)"/>
    <flow id="flow2_35" type="car" begin="7540.00" departLane="free" departSpeed="20.00" route="r_O1_D1" end="7550.00" period="exp(0.71)"/>
    <flow id="flow1_36" type="car" begin="7550.00" departLane="free" departSpeed="max" route="r_O1_D1" end="7560.00" period="exp(0.7)"/>
    <flow id="flow2_36" type="car" begin="7550.00" departLane="free" departSpeed="20.00" route="r_O1_D1" end="7560.00" period="exp(0.7)"/>
    <flow id="flow1_37" type="car" begin="7560.00" departLane="free" departSpeed="max" route="r_O1_D1" end="7570.00" period="exp(0.69)"/>
    <flow id="flow2_37" type="car" begin="7560.00" departLane="free" departSpeed="20.00" route="r_O1_D1" end="7570.00" period="exp(0.69)"/>
    <flow id="flow1_38" type="car" begin="7570.00" departLane="free" departSpeed="max" route="r_O1_D1" end="7580.00" period="exp(0.69)"/>
    <flow id="flow2_38" type="car" begin="7570.00" departLane="free" departSpeed="20.00" route="r_O1_D1" end="7580.00" period="exp(0.69)"/>
    <flow id="flow1_39" type="car" begin="7580.00" departLane="free" departSpeed="max" route="r_O1_D1" end="7590.00" period="exp(0.68)"/>
    <flow id="flow2_39" type="car" begin="7580.00" departLane="free" departSpeed="20.00" route="r_O1_D1" end="7590.00" period="exp(0.68)"/>
    <flow id="flow1_40" type="car" begin="7590.00" departLane="free" departSpeed="max" route="r_O1_D1" end="7600.00" period="exp(0.67)"/>
    <flow id="flow2_40" type="car" begin="7590.00" departLane="free" departSpeed="20.00" route="r_O1_D1" end="7600.00" period="exp(0.67)"/>
    <flow id="flow1_41" type="car" begin="7600.00" departLane="free" departSpeed="max" route="r_O1_D1" end="7610.00" period="exp(0.66)"/>
    <flow id="flow2_41" type="car" begin="7600.00" departLane="free" departSpeed="20.00" route="r_O1_D1" end="7610.00" period="exp(0.66)"/>
    <flow id="flow1_42" type="car" begin="7610.00" departLane="free" departSpeed="max" route="r_O1_D1" end="7620.00" period="exp(0.66)"/>
    <flow id="flow2_42" type="car" begin="7610.00" departLane="free" departSpeed="20.00" route="r_O1_D1" end="7620.00" period="exp(0.66)"/>
    <flow id="flow1_43" type="car" begin="7620.00" departLane="free" departSpeed="max" route="r_O1_D1" end="7630.00" period="exp(0.65)"/>
    <flow id="flow2_43" type="car" begin="7620.00" departLane="free" departSpeed="20.00" route="r_O1_D1" end="7630.00" period="exp(0.65)"/>
    <flow id="flow1_44" type="car" begin="7630.00" departLane="free" departSpeed="max" route="r_O1_D1" end="7640.00" period="exp(0.64)"/>
    <flow id="flow2_44" type="car" begin="7630.00" departLane="free" departSpeed="20.00" route="r_O1_D1" end="7640.00" period="exp(0.64)"/>
    <flow id="flow1_45" type="car" begin="7640.00" departLane="free" departSpeed="max" route="r_O1_D1" end="7650.00" period="exp(0.63)"/>
    <flow id="flow2_45" type="car" begin="7640.00" departLane="free" departSpeed="20.00" route="r_O1_D1" end="7650.00" period="exp(0.63)"/>
    <flow id="flow1_46" type="car" begin="7650.00" departLane="free" departSpeed="max" route="r_O1_D1" end="7660.00" period="exp(0.62)"/>
    <flow id="flow2_46" type="car" begin="7650.00" departLane="free" departSpeed="20.00" route="r_O1_D1" end="7660.00" period="exp(0.62)"/>
    <flow id="flow1_47" type="car" begin="7660.00" departLane="free" departSpeed="max" route="r_O1_D1" end="7670.00" period="exp(0.62)"/>
    <flow id="flow2_47" type="car" begin="7660.00" departLane="free" departSpeed="20.00" route="r_O1_D1" end="7670.00" period="exp(0.62)"/>
    <flow id="flow1_48" type="car" begin="7670.00" departLane="free" departSpeed="max" route="r_O1_D1" end="7680.00" period="exp(0.61)"/>
    <flow id="flow2_48" type="car" begin="7670.00" departLane="free" departSpeed="20.00" route="r_O1_D1" end="7680.00" period="exp(0.61)"/>
    <flow id="flow1_49" type="car" begin="7680.00" departLane="free" departSpeed="max" route="r_O1_D1" end="7690.00" period="exp(0.6)"/>
    <flow id="flow2_49" type="car" begin="7680.00" departLane="free" departSpeed="20.00" route="r_O1_D1" end="7690.00" period="exp(0.6)"/>
    <flow id="flow1_50" type="car" begin="7690.00" departLane="free" departSpeed="max" route="r_O1_D1" end="7700.00" period="exp(0.59)"/>
    <flow id="flow2_50" type="car" begin="7690.00" departLane="free" departSpeed="20.00" route="r_O1_D1" end="7700.00" period="exp(0.59)"/>
    <flow id="flow1_51" type="car" begin="7700.00" departLane="free" departSpeed="max" route="r_O1_D1" end="7710.00" period="exp(0.59)"/>
    <flow id="flow2_51" type="car" begin="7700.00" departLane="free" departSpeed="20.00" route="r_O1_D1" end="7710.00" period="exp(0.59)"/>
    <flow id="flow1_52" type="car" begin="7710.00" departLane="free" departSpeed="max" route="r_O1_D1" end="7720.00" period="exp(0.58)"/>