<?xml version='1.0' encoding='UTF-8'?>
<!-- generated on 2025-04-09 22:58:15 by Eclipse SUMO netedit Version 1.22.0
-->
<routes xmlns:xsi="http://www.w3.org/2001/XMLSchema-instance" xsi:noNamespaceSchemaLocation="http://sumo.dlr.de/xsd/routes_file.xsd">
  <!-- Define Vehicle Types  -->
  <!-- Passenger Vehicles (car_aggr1 = Least -> car_aggr5 = Most Aggressive) -->
  <vType id="car_aggr1" vClass="passenger" speedFactor="0.80" speedDev="0.08" tau="5.0" impatience="2.0" lcImpatience="1.0" lcCooperative="0.5" lcStrategic="60" lcSpeedGain="7.0" lcKeepRight="0.6" lcPushy="0" lcSublane="2.0" lcAssertive="2.0" lcTimeToImpatience="15" lcSigma="0.4" minGapLat="0.8" maxSpeed="35" accel="1.8" decel="3.0">
    <param key="laneChangeModel" value="SL2015"/>
  </vType>
  <vType id="car_aggr2" vClass="passenger" speedFactor="0.85" speedDev="0.09" tau="4.5" impatience="2.5" lcImpatience="1.5" lcCooperative="0.3" lcStrategic="40" lcSpeedGain="8.0" lcKeepRight="0.5" lcPushy="0" lcSublane="3.0" lcAssertive="2.8" lcTimeToImpatience="12" lcSigma="0.6" minGapLat="0.6" maxSpeed="35" accel="2.2" decel="4.0">
    <param key="laneChangeModel" value="SL2015"/>
  </vType>
  <vType id="car_aggr3" vClass="passenger" speedFactor="0.90" speedDev="0.10" tau="3.5" impatience="3.0" lcImpatience="2.0" lcCooperative="0.2" lcStrategic="25" lcSpeedGain="9.0" lcKeepRight="0.3" lcPushy="0" lcSublane="4.0" lcAssertive="3.5" lcTimeToImpatience="9" lcSigma="0.8" minGapLat="0.5" maxSpeed="40" accel="2.5" decel="5.0">
    <param key="laneChangeModel" value="SL2015"/>
  </vType>
  <vType id="car_aggr4" vClass="passenger" speedFactor="0.95" speedDev="0.12" tau="3.0" impatience="3.5" lcImpatience="2.5" lcCooperative="0.1" lcStrategic="15" lcSpeedGain="10.0" lcKeepRight="0.2" lcPushy="0" lcSublane="5.0" lcAssertive="4.2" lcTimeToImpatience="6" lcSigma="1.0" minGapLat="0.4" maxSpeed="40" accel="2.8" decel="6.0">
    <param key="laneChangeModel" value="SL2015"/>
  </vType>
  <vType id="car_aggr5" vClass="passenger" speedFactor="1.00" speedDev="0.15" tau="2.5" impatience="4.0" lcImpatience="3.0" lcCooperative="0.0" lcStrategic="5" lcSpeedGain="11.0" lcKeepRight="0.0" lcPushy="0" lcSublane="6.0" lcAssertive="5.0" lcTimeToImpatience="3" lcSigma="1.2" minGapLat="0.3" maxSpeed="45" accel="3.0" decel="8.0">
    <param key="laneChangeModel" value="SL2015"/>
  </vType>
  <vTypeDistribution id="car" vTypes="car_aggr1 car_aggr2 car_aggr3 car_aggr4 car_aggr5" probabilities="0.90 0.07 0.02 0.01 0"/>
  <!-- Routes -->
  <route id="r_O1_D1" edges="O1 L1a L1b L1c L2 D1"/>
  <route id="r_O2_D1" edges="O2 O2.206 L2 D1"/>
  <!-- Vehicles, persons and containers (sorted by depart) -->
  <flow id="f_ramp_10.0" type="car" route="r_O2_D1" begin="10.0" end="20.0" period="exp(0.001543)" departLane="free" departSpeed="random"/>
  <flow id="f_main_10.0" type="car" route="r_O1_D1" begin="10.0" end="20.0" period="exp(0.006173)" departLane="free" departSpeed="random"/>
  <flow id="f_ramp_20.0" type="car" route="r_O2_D1" begin="20.0" end="30.0" period="exp(0.003086)" departLane="free" departSpeed="random"/>
  <flow id="f_main_20.0" type="car" route="r_O1_D1" begin="20.0" end="30.0" period="exp(0.012346)" departLane="free" departSpeed="random"/>
  <flow id="f_ramp_30.0" type="car" route="r_O2_D1" begin="30.0" end="40.0" period="exp(0.00463)" departLane="free" departSpeed="random"/>
  <flow id="f_main_30.0" type="car" route="r_O1_D1" begin="30.0" end="40.0" period="exp(0.018519)" departLane="free" departSpeed="random"/>
  <flow id="f_ramp_40.0" type="car" route="r_O2_D1" begin="40.0" end="50.0" period="exp(0.006173)" departLane="free" departSpeed="random"/>
  <flow id="f_main_40.0" type="car" route="r_O1_D1" begin="40.0" end="50.0" period="exp(0.024691)" departLane="free" departSpeed="random"/>
  <flow id="f_ramp_50.0" type="car" route="r_O2_D1" begin="50.0" end="60.0" period="exp(0.007716)" departLane="free" departSpeed="random"/>
  <flow id="f_main_50.0" type="car" route="r_O1_D1" begin="50.0" end="60.0" period="exp(0.030864)" departLane="free" departSpeed="random"/>
  <flow id="f_ramp_60.0" type="car" route="r_O2_D1" begin="60.0" end="70.0" period="exp(0.009259)" departLane="free" departSpeed="random"/>
  <flow id="f_main_60.0" type="car" route="r_O1_D1" begin="60.0" end="70.0" period="exp(0.037037)" departLane="free" departSpeed="random"/>
  <flow id="f_ramp_70.0" type="car" route="r_O2_D1" begin="70.0" end="80.0" period="exp(0.010802)" departLane="free" departSpeed="random"/>
  <flow id="f_main_70.0" type="car" route="r_O1_D1" begin="70.0" end="80.0" period="exp(0.04321)" departLane="free" departSpeed="random"/>
  <flow id="f_ramp_80.0" type="car" route="r_O2_D1" begin="80.0" end="90.0" period="exp(0.012346)" departLane="free" departSpeed="random"/>
  <flow id="f_main_80.0" type="car" route="r_O1_D1" begin="80.0" end="90.0" period="exp(0.049383)" departLane="free" departSpeed="random"/>
  <flow id="f_ramp_90.0" type="car" route="r_O2_D1" begin="90.0" end="100.0" period="exp(0.013889)" departLane="free" departSpeed="random"/>
  <flow id="f_main_90.0" type="car" route="r_O1_D1" begin="90.0" end="100.0" period="exp(0.055556)" departLane="free" departSpeed="random"/>
  <flow id="f_ramp_100.0" type="car" route="r_O2_D1" begin="100.0" end="110.0" period="exp(0.015432)" departLane="free" departSpeed="random"/>
  <flow id="f_main_100.0" type="car" route="r_O1_D1" begin="100.0" end="110.0" period="exp(0.061728)" departLane="free" departSpeed="random"/>
  <flow id="f_ramp_110.0" type="car" route="r_O2_D1" begin="110.0" end="120.0" period="exp(0.016975)" departLane="free" departSpeed="random"/>
  <flow id="f_main_110.0" type="car" route="r_O1_D1" begin="110.0" end="120.0" period="exp(0.067901)" departLane="free" departSpeed="random"/>
  <flow id="f_ramp_120.0" type="car" route="r_O2_D1" begin="120.0" end="130.0" period="exp(0.018519)" departLane="free" departSpeed="random"/>
  <flow id="f_main_120.0" type="car" route="r_O1_D1" begin="120.0" end="130.0" period="exp(0.074074)" departLane="free" departSpeed="random"/>
  <flow id="f_ramp_130.0" type="car" route="r_O2_D1" begin="130.0" end="140.0" period="exp(0.020062)" departLane="free" departSpeed="random"/>
  <flow id="f_main_130.0" type="car" route="r_O1_D1" begin="130.0" end="140.0" period="exp(0.080247)" departLane="free" departSpeed="random"/>
  <flow id="f_ramp_140.0" type="car" route="r_O2_D1" begin="140.0" end="150.0" period="exp(0.021605)" departLane="free" departSpeed="random"/>
  <flow id="f_main_140.0" type="car" route="r_O1_D1" begin="140.0" end="150.0" period="exp(0.08642)" departLane="free" departSpeed="random"/>
  <flow id="f_ramp_150.0" type="car" route="r_O2_D1" begin="150.0" end="160.0" period="exp(0.023148)" departLane="free" departSpeed="random"/>
  <flow id="f_main_150.0" type="car" route="r_O1_D1" begin="150.0" end="160.0" period="exp(0.092593)" departLane="free" departSpeed="random"/>
  <flow id="f_ramp_160.0" type="car" route="r_O2_D1" begin="160.0" end="170.0" period="exp(0.024691)" departLane="free" departSpeed="random"/>
  <flow id="f_main_160.0" type="car" route="r_O1_D1" begin="160.0" end="170.0" period="exp(0.098765)" departLane="free" departSpeed="random"/>
  <flow id="f_ramp_170.0" type="car" route="r_O2_D1" begin="170.0" end="180.0" period="exp(0.026235)" departLane="free" departSpeed="random"/>
  <flow id="f_main_170.0" type="car" route="r_O1_D1" begin="170.0" end="180.0" period="exp(0.104938)" departLane="free" departSpeed="random"/>
  <flow id="f_ramp_180.0" type="car" route="r_O2_D1" begin="180.0" end="190.0" period="exp(0.027778)" departLane="free" departSpeed="random"/>
  <flow id="f_main_180.0" type="car" route="r_O1_D1" begin="180.0" end="190.0" period="exp(0.111111)" departLane="free" departSpeed="random"/>
  <flow id="f_ramp_190.0" type="car" route="r_O2_D1" begin="190.0" end="200.0" period="exp(0.029321)" departLane="free" departSpeed="random"/>
  <flow id="f_main_190.0" type="car" route="r_O1_D1" begin="190.0" end="200.0" period="exp(0.117284)" departLane="free" departSpeed="random"/>
  <flow id="f_ramp_200.0" type="car" route="r_O2_D1" begin="200.0" end="210.0" period="exp(0.030864)" departLane="free" departSpeed="random"/>
  <flow id="f_main_200.0" type="car" route="r_O1_D1" begin="200.0" end="210.0" period="exp(0.123457)" departLane="free" departSpeed="random"/>
  <flow id="f_ramp_210.0" type="car" route="r_O2_D1" begin="210.0" end="220.0" period="exp(0.032407)" departLane="free" departSpeed="random"/>
  <flow id="f_main_210.0" type="car" route="r_O1_D1" begin="210.0" end="220.0" period="exp(0.12963)" departLane="free" departSpeed="random"/>
  <flow id="f_ramp_220.0" type="car" route="r_O2_D1" begin="220.0" end="230.0" period="exp(0.033951)" departLane="free" departSpeed="random"/>
  <flow id="f_main_220.0" type="car" route="r_O1_D1" begin="220.0" end="230.0" period="exp(0.135802)" departLane="free" departSpeed="random"/>
  <flow id="f_ramp_230.0" type="car" route="r_O2_D1" begin="230.0" end="240.0" period="exp(0.035494)" departLane="free" departSpeed="random"/>
  <flow id="f_main_230.0" type="car" route="r_O1_D1" begin="230.0" end="240.0" period="exp(0.141975)" departLane="free" departSpeed="random"/>
  <flow id="f_ramp_240.0" type="car" route="r_O2_D1" begin="240.0" end="250.0" period="exp(0.037037)" departLane="free" departSpeed="random"/>
  <flow id="f_main_240.0" type="car" route="r_O1_D1" begin="240.0" end="250.0" period="exp(0.148148)" departLane="free" departSpeed="random"/>
  <flow id="f_ramp_250.0" type="car" route="r_O2_D1" begin="250.0" end="260.0" period="exp(0.03858)" departLane="free" departSpeed="random"/>
  <flow id="f_main_250.0" type="car" route="r_O1_D1" begin="250.0" end="260.0" period="exp(0.154321)" departLane="free" departSpeed="random"/>
  <flow id="f_ramp_260.0" type="car" route="r_O2_D1" begin="260.0" end="270.0" period="exp(0.040123)" departLane="free" departSpeed="random"/>
  <flow id="f_main_260.0" type="car" route="r_O1_D1" begin="260.0" end="270.0" period="exp(0.160494)" departLane="free" departSpeed="random"/>
  <flow id="f_ramp_270.0" type="car" route="r_O2_D1" begin="270.0" end="280.0" period="exp(0.041667)" departLane="free" departSpeed="random"/>
  <flow id="f_main_270.0" type="car" route="r_O1_D1" begin="270.0" end="280.0" period="exp(0.166667)" departLane="free" departSpeed="random"/>
  <flow id="f_ramp_280.0" type="car" route="r_O2_D1" begin="280.0" end="290.0" period="exp(0.04321)" departLane="free" departSpeed="random"/>
  <flow id="f_main_280.0" type="car" route="r_O1_D1" begin="280.0" end="290.0" period="exp(0.17284)" departLane="free" departSpeed="random"/>
  <flow id="f_ramp_290.0" type="car" route="r_O2_D1" begin="290.0" end="300.0" period="exp(0.044753)" departLane="free" departSpeed="random"/>
  <flow id="f_main_290.0" type="car" route="r_O1_D1" begin="290.0" end="300.0" period="exp(0.179012)" departLane="free" departSpeed="random"/>
  <flow id="f_ramp_300.0" type="car" route="r_O2_D1" begin="300.0" end="310.0" period="exp(0.046296)" departLane="free" departSpeed="random"/>
  <flow id="f_main_300.0" type="car" route="r_O1_D1" begin="300.0" end="310.0" period="exp(0.185185)" departLane="free" departSpeed="random"/>
  <flow id="f_ramp_310.0" type="car" route="r_O2_D1" begin="310.0" end="320.0" period="exp(0.04784)" departLane="free" departSpeed="random"/>
  <flow id="f_main_310.0" type="car" route="r_O1_D1" begin="310.0" end="320.0" period="exp(0.191358)" departLane="free" departSpeed="random"/>
  <flow id="f_ramp_320.0" type="car" route="r_O2_D1" begin="320.0" end="330.0" period="exp(0.049383)" departLane="free" departSpeed="random"/>
  <flow id="f_main_320.0" type="car" route="r_O1_D1" begin="320.0" end="330.0" period="exp(0.197531)" departLane="free" departSpeed="random"/>
  <flow id="f_ramp_330.0" type="car" route="r_O2_D1" begin="330.0" end="340.0" period="exp(0.050926)" departLane="free" departSpeed="random"/>
  <flow id="f_main_330.0" type="car" route="r_O1_D1" begin="330.0" end="340.0" period="exp(0.203704)" departLane="free" departSpeed="random"/>
  <flow id="f_ramp_340.0" type="car" route="r_O2_D1" begin="340.0" end="350.0" period="exp(0.052469)" departLane="free" departSpeed="random"/>
  <flow id="f_main_340.0" type="car" route="r_O1_D1" begin="340.0" end="350.0" period="exp(0.209877)" departLane="free" departSpeed="random"/>
  <flow id="f_ramp_350.0" type="car" route="r_O2_D1" begin="350.0" end="360.0" period="exp(0.054012)" departLane="free" departSpeed="random"/>
  <flow id="f_main_350.0" type="car" route="r_O1_D1" begin="350.0" end="360.0" period="exp(0.216049)" departLane="free" departSpeed="random"/>
  <flow id="f_ramp_360.0" type="car" route="r_O2_D1" begin="360.0" end="370.0" period="exp(0.055556)" departLane="free" departSpeed="random"/>
  <flow id="f_main_360.0" type="car" route="r_O1_D1" begin="360.0" end="370.0" period="exp(0.222222)" departLane="free" departSpeed="random"/>
  <flow id="f_ramp_370.0" type="car" route="r_O2_D1" begin="370.0" end="380.0" period="exp(0.057099)" departLane="free" departSpeed="random"/>
  <flow id="f_main_370.0" type="car" route="r_O1_D1" begin="370.0" end="380.0" period="exp(0.228395)" departLane="free" departSpeed="random"/>
  <flow id="f_ramp_380.0" type="car" route="r_O2_D1" begin="380.0" end="390.0" period="exp(0.058642)" departLane="free" departSpeed="random"/>
  <flow id="f_main_380.0" type="car" route="r_O1_D1" begin="380.0" end="390.0" period="exp(0.234568)" departLane="free" departSpeed="random"/>
  <flow id="f_ramp_390.0" type="car" route="r_O2_D1" begin="390.0" end="400.0" period="exp(0.060185)" departLane="free" departSpeed="random"/>
  <flow id="f_main_390.0" type="car" route="r_O1_D1" begin="390.0" end="400.0" period="exp(0.240741)" departLane="free" departSpeed="random"/>
  <flow id="f_ramp_400.0" type="car" route="r_O2_D1" begin="400.0" end="410.0" period="exp(0.061728)" departLane="free" departSpeed="random"/>
  <flow id="f_main_400.0" type="car" route="r_O1_D1" begin="400.0" end="410.0" period="exp(0.246914)" departLane="free" departSpeed="random"/>
  <flow id="f_ramp_410.0" type="car" route="r_O2_D1" begin="410.0" end="420.0" period="exp(0.063272)" departLane="free" departSpeed="random"/>
  <flow id="f_main_410.0" type="car" route="r_O1_D1" begin="410.0" end="420.0" period="exp(0.253086)" departLane="free" departSpeed="random"/>
  <flow id="f_ramp_420.0" type="car" route="r_O2_D1" begin="420.0" end="430.0" period="exp(0.064815)" departLane="free" departSpeed="random"/>
  <flow id="f_main_420.0" type="car" route="r_O1_D1" begin="420.0" end="430.0" period="exp(0.259259)" departLane="free" departSpeed="random"/>
  <flow id="f_ramp_430.0" type="car" route="r_O2_D1" begin="430.0" end="440.0" period="exp(0.066358)" departLane="free" departSpeed="random"/>
  <flow id="f_main_430.0" type="car" route="r_O1_D1" begin="430.0" end="440.0" period="exp(0.265432)" departLane="free" departSpeed="random"/>
  <flow id="f_ramp_440.0" type="car" route="r_O2_D1" begin="440.0" end="450.0" period="exp(0.067901)" departLane="free" departSpeed="random"/>
  <flow id="f_main_440.0" type="car" route="r_O1_D1" begin="440.0" end="450.0" period="exp(0.271605)" departLane="free" departSpeed="random"/>
  <flow id="f_ramp_450.0" type="car" route="r_O2_D1" begin="450.0" end="460.0" period="exp(0.069444)" departLane="free" departSpeed="random"/>
  <flow id="f_main_450.0" type="car" route="r_O1_D1" begin="450.0" end="460.0" period="exp(0.277778)" departLane="free" departSpeed="random"/>
  <flow id="f_ramp_460.0" type="car" route="r_O2_D1" begin="460.0" end="470.0" period="exp(0.070988)" departLane="free" departSpeed="random"/>
  <flow id="f_main_460.0" type="car" route="r_O1_D1" begin="460.0" end="470.0" period="exp(0.283951)" departLane="free" departSpeed="random"/>
  <flow id="f_ramp_470.0" type="car" route="r_O2_D1" begin="470.0" end="480.0" period="exp(0.072531)" departLane="free" departSpeed="random"/>
  <flow id="f_main_470.0" type="car" route="r_O1_D1" begin="470.0" end="480.0" period="exp(0.290123)" departLane="free" departSpeed="random"/>
  <flow id="f_ramp_480.0" type="car" route="r_O2_D1" begin="480.0" end="490.0" period="exp(0.074074)" departLane="free" departSpeed="random"/>
  <flow id="f_main_480.0" type="car" route="r_O1_D1" begin="480.0" end="490.0" period="exp(0.296296)" departLane="free" departSpeed="random"/>
  <flow id="f_ramp_490.0" type="car" route="r_O2_D1" begin="490.0" end="500.0" period="exp(0.075617)" departLane="free" departSpeed="random"/>
  <flow id="f_main_490.0" type="car" route="r_O1_D1" begin="490.0" end="500.0" period="exp(0.302469)" departLane="free" departSpeed="random"/>
  <flow id="f_ramp_500.0" type="car" route="r_O2_D1" begin="500.0" end="510.0" period="exp(0.07716)" departLane="free" departSpeed="random"/>
  <flow id="f_main_500.0" type="car" route="r_O1_D1" begin="500.0" end="510.0" period="exp(0.308642)" departLane="free" departSpeed="random"/>
  <flow id="f_ramp_510.0" type="car" route="r_O2_D1" begin="510.0" end="520.0" period="exp(0.078704)" departLane="free" departSpeed="random"/>
  <flow id="f_main_510.0" type="car" route="r_O1_D1" begin="510.0" end="520.0" period="exp(0.314815)" departLane="free" departSpeed="random"/>
  <flow id="f_ramp_520.0" type="car" route="r_O2_D1" begin="520.0" end="530.0" period="exp(0.080247)" departLane="free" departSpeed="random"/>
  <flow id="f_main_520.0" type="car" route="r_O1_D1" begin="520.0" end="530.0" period="exp(0.320988)" departLane="free" departSpeed="random"/>
  <flow id="f_ramp_530.0" type="car" route="r_O2_D1" begin="530.0" end="540.0" period="exp(0.08179)" departLane="free" departSpeed="random"/>
  <flow id="f_main_530.0" type="car" route="r_O1_D1" begin="530.0" end="540.0" period="exp(0.32716)" departLane="free" departSpeed="random"/>
  <flow id="f_ramp_540.0" type="car" route="r_O2_D1" begin="540.0" end="550.0" period="exp(0.083333)" departLane="free" departSpeed="random"/>
  <flow id="f_main_540.0" type="car" route="r_O1_D1" begin="540.0" end="550.0" period="exp(0.333333)" departLane="free" departSpeed="random"/>
  <flow id="f_ramp_550.0" type="car" route="r_O2_D1" begin="550.0" end="560.0" period="exp(0.084877)" departLane="free" departSpeed="random"/>
  <flow id="f_main_550.0" type="car" route="r_O1_D1" begin="550.0" end="560.0" period="exp(0.339506)" departLane="free" departSpeed="random"/>
  <flow id="f_ramp_560.0" type="car" route="r_O2_D1" begin="560.0" end="570.0" period="exp(0.08642)" departLane="free" departSpeed="random"/>
  <flow id="f_main_560.0" type="car" route="r_O1_D1" begin="560.0" end="570.0" period="exp(0.345679)" departLane="free" departSpeed="random"/>
  <flow id="f_ramp_570.0" type="car" route="r_O2_D1" begin="570.0" end="580.0" period="exp(0.087963)" departLane="free" departSpeed="random"/>
  <flow id="f_main_570.0" type="car" route="r_O1_D1" begin="570.0" end="580.0" period="exp(0.351852)" departLane="free" departSpeed="random"/>
  <flow id="f_ramp_580.0" type="car" route="r_O2_D1" begin="580.0" end="590.0" period="exp(0.089506)" departLane="free" departSpeed="random"/>
  <flow id="f_main_580.0" type="car" route="r_O1_D1" begin="580.0" end="590.0" period="exp(0.358025)" departLane="free" departSpeed="random"/>
  <flow id="f_ramp_590.0" type="car" route="r_O2_D1" begin="590.0" end="600.0" period="exp(0.091049)" departLane="free" departSpeed="random"/>
  <flow id="f_main_590.0" type="car" route="r_O1_D1" begin="590.0" end="600.0" period="exp(0.364198)" departLane="free" departSpeed="random"/>
  <flow id="f_ramp_600.0" type="car" route="r_O2_D1" begin="600.0" end="610.0" period="exp(0.092593)" departLane="free" departSpeed="random"/>
  <flow id="f_main_600.0" type="car" route="r_O1_D1" begin="600.0" end="610.0" period="exp(0.37037)" departLane="free" departSpeed="random"/>
  <flow id="f_ramp_610.0" type="car" route="r_O2_D1" begin="610.0" end="620.0" period="exp(0.094136)" departLane="free" departSpeed="random"/>
  <flow id="f_main_610.0" type="car" route="r_O1_D1" begin="610.0" end="620.0" period="exp(0.376543)" departLane="free" departSpeed="random"/>
  <flow id="f_ramp_620.0" type="car" route="r_O2_D1" begin="620.0" end="630.0" period="exp(0.095679)" departLane="free" departSpeed="random"/>
  <flow id="f_main_620.0" type="car" route="r_O1_D1" begin="620.0" end="630.0" period="exp(0.382716)" departLane="free" departSpeed="random"/>
  <flow id="f_ramp_630.0" type="car" route="r_O2_D1" begin="630.0" end="640.0" period="exp(0.097222)" departLane="free" departSpeed="random"/>
  <flow id="f_main_630.0" type="car" route="r_O1_D1" begin="630.0" end="640.0" period="exp(0.388889)" departLane="free" departSpeed="random"/>
  <flow id="f_ramp_640.0" type="car" route="r_O2_D1" begin="640.0" end="650.0" period="exp(0.098765)" departLane="free" departSpeed="random"/>
  <flow id="f_main_640.0" type="car" route="r_O1_D1" begin="640.0" end="650.0" period="exp(0.395062)" departLane="free" departSpeed="random"/>
  <flow id="f_ramp_650.0" type="car" route="r_O2_D1" begin="650.0" end="660.0" period="exp(0.100309)" departLane="free" departSpeed="random"/>
  <flow id="f_main_650.0" type="car" route="r_O1_D1" begin="650.0" end="660.0" period="exp(0.401235)" departLane="free" departSpeed="random"/>
  <flow id="f_ramp_660.0" type="car" route="r_O2_D1" begin="660.0" end="670.0" period="exp(0.101852)" departLane="free" departSpeed="random"/>
  <flow id="f_main_660.0" type="car" route="r_O1_D1" begin="660.0" end="670.0" period="exp(0.407407)" departLane="free" departSpeed="random"/>
  <flow id="f_ramp_670.0" type="car" route="r_O2_D1" begin="670.0" end="680.0" period="exp(0.103395)" departLane="free" departSpeed="random"/>
  <flow id="f_main_670.0" type="car" route="r_O1_D1" begin="670.0" end="680.0" period="exp(0.41358)" departLane="free" departSpeed="random"/>
  <flow id="f_ramp_680.0" type="car" route="r_O2_D1" begin="680.0" end="690.0" period="exp(0.104938)" departLane="free" departSpeed="random"/>
  <flow id="f_main_680.0" type="car" route="r_O1_D1" begin="680.0" end="690.0" period="exp(0.419753)" departLane="free" departSpeed="random"/>
  <flow id="f_ramp_690.0" type="car" route="r_O2_D1" begin="690.0" end="700.0" period="exp(0.106481)" departLane="free" departSpeed="random"/>
  <flow id="f_main_690.0" type="car" route="r_O1_D1" begin="690.0" end="700.0" period="exp(0.425926)" departLane="free" departSpeed="random"/>
  <flow id="f_ramp_700.0" type="car" route="r_O2_D1" begin="700.0" end="710.0" period="exp(0.108025)" departLane="free" departSpeed="random"/>
  <flow id="f_main_700.0" type="car" route="r_O1_D1" begin="700.0" end="710.0" period="exp(0.432099)" departLane="free" departSpeed="random"/>
  <flow id="f_ramp_710.0" type="car" route="r_O2_D1" begin="710.0" end="720.0" period="exp(0.109568)" departLane="free" departSpeed="random"/>
  <flow id="f_main_710.0" type="car" route="r_O1_D1" begin="710.0" end="720.0" period="exp(0.438272)" departLane="free" departSpeed="random"/>
  <flow id="f_ramp_720.0" type="car" route="r_O2_D1" begin="720.0" end="730.0" period="exp(0.111111)" departLane="free" departSpeed="random"/>
  <flow id="f_main_720.0" type="car" route="r_O1_D1" begin="720.0" end="730.0" period="exp(0.444444)" departLane="free" departSpeed="random"/>
  <flow id="f_ramp_730.0" type="car" route="r_O2_D1" begin="730.0" end="740.0" period="exp(0.112654)" departLane="free" departSpeed="random"/>
  <flow id="f_main_730.0" type="car" route="r_O1_D1" begin="730.0" end="740.0" period="exp(0.450617)" departLane="free" departSpeed="random"/>
  <flow id="f_ramp_740.0" type="car" route="r_O2_D1" begin="740.0" end="750.0" period="exp(0.114198)" departLane="free" departSpeed="random"/>
  <flow id="f_main_740.0" type="car" route="r_O1_D1" begin="740.0" end="750.0" period="exp(0.45679)" departLane="free" departSpeed="random"/>
  <flow id="f_ramp_750.0" type="car" route="r_O2_D1" begin="750.0" end="760.0" period="exp(0.115741)" departLane="free" departSpeed="random"/>
  <flow id="f_main_750.0" type="car" route="r_O1_D1" begin="750.0" end="760.0" period="exp(0.462963)" departLane="free" departSpeed="random"/>
  <flow id="f_ramp_760.0" type="car" route="r_O2_D1" begin="760.0" end="770.0" period="exp(0.117284)" departLane="free" departSpeed="random"/>
  <flow id="f_main_760.0" type="car" route="r_O1_D1" begin="760.0" end="770.0" period="exp(0.469136)" departLane="free" departSpeed="random"/>
  <flow id="f_ramp_770.0" type="car" route="r_O2_D1" begin="770.0" end="780.0" period="exp(0.118827)" departLane="free" departSpeed="random"/>
  <flow id="f_main_770.0" type="car" route="r_O1_D1" begin="770.0" end="780.0" period="exp(0.475309)" departLane="free" departSpeed="random"/>
  <flow id="f_ramp_780.0" type="car" route="r_O2_D1" begin="780.0" end="790.0" period="exp(0.12037)" departLane="free" departSpeed="random"/>
  <flow id="f_main_780.0" type="car" route="r_O1_D1" begin="780.0" end="790.0" period="exp(0.481481)" departLane="free" departSpeed="random"/>
  <flow id="f_ramp_790.0" type="car" route="r_O2_D1" begin="790.0" end="800.0" period="exp(0.121914)" departLane="free" departSpeed="random"/>
  <flow id="f_main_790.0" type="car" route="r_O1_D1" begin="790.0" end="800.0" period="exp(0.487654)" departLane="free" departSpeed="random"/>
  <flow id="f_ramp_800.0" type="car" route="r_O2_D1" begin="800.0" end="810.0" period="exp(0.123457)" departLane="free" departSpeed="random"/>
  <flow id="f_main_800.0" type="car" route="r_O1_D1" begin="800.0" end="810.0" period="exp(0.493827)" departLane="free" departSpeed="random"/>
  <flow id="f_ramp_810.0" type="car" route="r_O2_D1" begin="810.0" end="820.0" period="exp(0.125)" departLane="free" departSpeed="random"/>
  <flow id="f_main_810.0" type="car" route="r_O1_D1" begin="810.0" end="820.0" period="exp(0.5)" departLane="free" departSpeed="random"/>
  <flow id="f_ramp_820.0" type="car" route="r_O2_D1" begin="820.0" end="830.0" period="exp(0.126543)" departLane="free" departSpeed="random"/>
  <flow id="f_main_820.0" type="car" route="r_O1_D1" begin="820.0" end="830.0" period="exp(0.506173)" departLane="free" departSpeed="random"/>
  <flow id="f_ramp_830.0" type="car" route="r_O2_D1" begin="830.0" end="840.0" period="exp(0.128086)" departLane="free" departSpeed="random"/>
  <flow id="f_main_830.0" type="car" route="r_O1_D1" begin="830.0" end="840.0" period="exp(0.512346)" departLane="free" departSpeed="random"/>
  <flow id="f_ramp_840.0" type="car" route="r_O2_D1" begin="840.0" end="850.0" period="exp(0.12963)" departLane="free" departSpeed="random"/>
  <flow id="f_main_840.0" type="car" route="r_O1_D1" begin="840.0" end="850.0" period="exp(0.518519)" departLane="free" departSpeed="random"/>
  <flow id="f_ramp_850.0" type="car" route="r_O2_D1" begin="850.0" end="860.0" period="exp(0.131173)" departLane="free" departSpeed="random"/>
  <flow id="f_main_850.0" type="car" route="r_O1_D1" begin="850.0" end="860.0" period="exp(0.524691)" departLane="free" departSpeed="random"/>
  <flow id="f_ramp_860.0" type="car" route="r_O2_D1" begin="860.0" end="870.0" period="exp(0.132716)" departLane="free" departSpeed="random"/>
  <flow id="f_main_860.0" type="car" route="r_O1_D1" begin="860.0" end="870.0" period="exp(0.530864)" departLane="free" departSpeed="random"/>
  <flow id="f_ramp_870.0" type="car" route="r_O2_D1" begin="870.0" end="880.0" period="exp(0.134259)" departLane="free" departSpeed="random"/>
  <flow id="f_main_870.0" type="car" route="r_O1_D1" begin="870.0" end="880.0" period="exp(0.537037)" departLane="free" departSpeed="random"/>
  <flow id="f_ramp_880.0" type="car" route="r_O2_D1" begin="880.0" end="890.0" period="exp(0.135802)" departLane="free" departSpeed="random"/>
  <flow id="f_main_880.0" type="car" route="r_O1_D1" begin="880.0" end="890.0" period="exp(0.54321)" departLane="free" departSpeed="random"/>
  <flow id="f_ramp_890.0" type="car" route="r_O2_D1" begin="890.0" end="900.0" period="exp(0.137346)" departLane="free" departSpeed="random"/>
  <flow id="f_main_890.0" type="car" route="r_O1_D1" begin="890.0" end="900.0" period="exp(0.549383)" departLane="free" departSpeed="random"/>
  <flow id="f_ramp_900.0" type="car" route="r_O2_D1" begin="900.0" end="1800.0" period="exp(0.138889)" departLane="free" departSpeed="random"/>
  <flow id="f_main_900.0" type="car" route="r_O1_D1" begin="900.0" end="9000.0" period="exp(0.555556)" departLane="free" departSpeed="random"/>
  <flow id="f_ramp_1800.0" type="car" route="r_O2_D1" begin="1800.0" end="1810.0" period="exp(0.138889)" departLane="free" departSpeed="random"/>
  <flow id="f_ramp_1810.0" type="car" route="r_O2_D1" begin="1810.0" end="1820.0" period="exp(0.142747)" departLane="free" departSpeed="random"/>
  <flow id="f_ramp_1820.0" type="car" route="r_O2_D1" begin="1820.0" end="1830.0" period="exp(0.146605)" departLane="free" departSpeed="random"/>
  <flow id="f_ramp_1830.0" type="car" route="r_O2_D1" begin="1830.0" end="1840.0" period="exp(0.150463)" departLane="free" departSpeed="random"/>
  <flow id="f_ramp_1840.0" type="car" route="r_O2_D1" begin="1840.0" end="1850.0" period="exp(0.154321)" departLane="free" departSpeed="random"/>
  <flow id="f_ramp_1850.0" type="car" route="r_O2_D1" begin="1850.0" end="1860.0" period="exp(0.158179)" departLane="free" departSpeed="random"/>
  <flow id="f_ramp_1860.0" type="car" route="r_O2_D1" begin="1860.0" end="1870.0" period="exp(0.162037)" departLane="free" departSpeed="random"/>
  <flow id="f_ramp_1870.0" type="car" route="r_O2_D1" begin="1870.0" end="1880.0" period="exp(0.165895)" departLane="free" departSpeed="random"/>
  <flow id="f_ramp_1880.0" type="car" route="r_O2_D1" begin="1880.0" end="1890.0" period="exp(0.169753)" departLane="free" departSpeed="random"/>
  <flow id="f_ramp_1890.0" type="car" route="r_O2_D1" begin="1890.0" end="1900.0" period="exp(0.173611)" departLane="free" departSpeed="random"/>
  <flow id="f_ramp_1900.0" type="car" route="r_O2_D1" begin="1900.0" end="1910.0" period="exp(0.177469)" departLane="free" departSpeed="random"/>