<?xml version="1.0" encoding="UTF-8"?>

<!-- generated on 2025-03-14 13:18:04 by Eclipse SUMO netedit Version 1.22.0
<neteditConfiguration xmlns:xsi="http://www.w3.org/2001/XMLSchema-instance" xsi:noNamespaceSchemaLocation="http://sumo.dlr.de/xsd/neteditConfiguration.xsd">

    <input>
        <route-files value="/Users/alina/Documents/GitHub/MPC-DRL-Project/traci_example/Traci.rou.xml"/>
        <sumo-net-file value="/Users/alina/Documents/GitHub/MPC-DRL-Project/traci_example/Traci.net.xml"/>
    </input>

    <output>
        <output-file value="/Users/alina/Documents/GitHub/MPC-DRL-Project/traci_example/Traci.net.xml"/>
    </output>

    <processing>
        <offset.disable-normalization value="true"/>
    </processing>

    <junctions>
        <no-turnarounds value="true"/>
    </junctions>

    <netedit>
        <new-network value="false"/>
    </netedit>

</neteditConfiguration>
-->

<net version="1.20" junctionCornerDetail="5" limitTurnSpeed="5.50" xmlns:xsi="http://www.w3.org/2001/XMLSchema-instance" xsi:noNamespaceSchemaLocation="http://sumo.dlr.de/xsd/net_file.xsd">

    <location netOffset="0.00,0.00" convBoundary="-55.91,-25.33,49.05,13.21" origBoundary="10000000000.00,10000000000.00,-10000000000.00,-10000000000.00" projParameter="!"/>

    <edge id=":J2_0" function="internal">
        <lane id=":J2_0_0" index="0" speed="13.89" length="11.20" shape="2.13,14.65 -9.07,14.68"/>
    </edge>
    <edge id=":J2_1" function="internal">
        <lane id=":J2_1_0" index="0" speed="6.49" length="9.03" shape="-3.45,5.85 -3.12,8.31 -2.08,10.06 -0.33,11.11 2.12,11.45"/>
    </edge>
    <edge id=":J2_2" function="internal">
        <lane id=":J2_2_0" index="0" speed="7.36" length="11.74" shape="-3.45,5.85 -3.83,9.71 -4.89,12.47 -6.64,14.12 -9.07,14.68"/>
    </edge>
    <edge id=":J2_3" function="internal">
        <lane id=":J2_3_0" index="0" speed="13.89" length="11.20" shape="-9.08,11.48 2.12,11.45"/>
    </edge>

    <edge id="-E0" from="J1" to="J2" priority="-1">
        <lane id="-E0_0" index="0" speed="13.89" length="46.92" shape="49.06,14.52 2.13,14.65"/>
    </edge>
    <edge id="-E00" from="J2" to="J0" priority="-1">
        <lane id="-E00_0" index="0" speed="13.89" length="46.84" shape="-9.07,14.68 -55.91,14.81"/>
    </edge>
    <edge id="E0" from="J0" to="J2" priority="-1">
        <lane id="E0_0" index="0" speed="13.89" length="46.84" shape="-55.92,11.61 -9.08,11.48"/>
    </edge>
    <edge id="E0.50" from="J2" to="J1" priority="-1">
        <lane id="E0.50_0" index="0" speed="13.89" length="46.92" shape="2.12,11.45 49.05,11.32"/>
    </edge>
    <edge id="E1" from="J3" to="J2" priority="-1">
        <lane id="E1_0" index="0" speed="13.89" length="31.17" shape="-3.22,-25.32 -3.45,5.85"/>
    </edge>

    <junction id="J0" type="dead_end" x="-55.91" y="13.21" incLanes="-E00_0" intLanes="" shape="-55.91,13.21 -55.90,16.41 -55.91,13.21"/>
    <junction id="J1" type="dead_end" x="49.05" y="12.92" incLanes="E0.50_0" intLanes="" shape="49.05,12.92 49.04,9.72 49.05,12.92"/>
    <junction id="J2" type="priority" x="-5.11" y="13.07" incLanes="-E0_0 E1_0 E0_0" intLanes=":J2_0_0 :J2_1_0 :J2_2_0 :J2_3_0" shape="2.14,16.25 2.12,9.85 -0.10,9.41 -0.87,8.86 -1.42,8.08 -1.75,7.08 -1.85,5.86 -5.05,5.84 -5.51,8.08 -6.07,8.86 -6.86,9.43 -7.86,9.77 -9.08,9.88 -9.06,16.28">
        <request index="0" response="0000" foes="0100" cont="0"/>
        <request index="1" response="1000" foes="1000" cont="0"/>
        <request index="2" response="1001" foes="1001" cont="0"/>
        <request index="3" response="0000" foes="0110" cont="0"/>
    </junction>
    <junction id="J3" type="dead_end" x="-4.82" y="-25.33" incLanes="" intLanes="" shape="-4.82,-25.33 -1.62,-25.30"/>

    <connection from="-E0" to="-E00" fromLane="0" toLane="0" via=":J2_0_0" dir="s" state="M"/>
    <connection from="E0" to="E0.50" fromLane="0" toLane="0" via=":J2_3_0" dir="s" state="M"/>
    <connection from="E1" to="E0.50" fromLane="0" toLane="0" via=":J2_1_0" dir="r" state="m"/>
    <connection from="E1" to="-E00" fromLane="0" toLane="0" via=":J2_2_0" dir="l" state="m"/>

    <connection from=":J2_0" to="-E00" fromLane="0" toLane="0" dir="s" state="M"/>
    <connection from=":J2_1" to="E0.50" fromLane="0" toLane="0" dir="r" state="M"/>
    <connection from=":J2_2" to="-E00" fromLane="0" toLane="0" dir="l" state="M"/>
    <connection from=":J2_3" to="E0.50" fromLane="0" toLane="0" dir="s" state="M"/>

</net>
