<?xml version="1.0" encoding="UTF-8"?>

<!-- generated on 2025-03-16 13:36:04 by Eclipse SUMO sumo Version 1.22.0
-->

<sumoConfiguration xmlns:xsi="http://www.w3.org/2001/XMLSchema-instance" xsi:noNamespaceSchemaLocation="http://sumo.dlr.de/xsd/sumoConfiguration.xsd">

    <input>
        <net-file value="signaling_example.net.xml"/>
        <route-files value="signaling_example.rou.xml"/>
    </input>

</sumoConfiguration>
