<?xml version='1.0' encoding='UTF-8'?>
<!-- generated on 2025-04-09 22:43:37 by Eclipse SUMO netedit Version 1.22.0
-->
<routes xmlns:xsi="http://www.w3.org/2001/XMLSchema-instance" xsi:noNamespaceSchemaLocation="http://sumo.dlr.de/xsd/routes_file.xsd">
  <!-- VTypes -->
  <vType id="car" length="5.00" minGap="2.50" maxSpeed="33.33" guiShape="passenger" accel="2.6" decel="4.5" sigma="0.5"/>
  <!-- Routes -->
  <route id="r_O1_D1" edges="O1 L1a L1b L1c L2 D1"/>
  <route id="r_O2_D1" edges="O2 O2.206 L2 D1"/>
  <!-- Vehicles, persons and containers (sorted by depart) -->
  <flow id="f_0_0" type="car" route="r_O2_D1" begin="0" end="10" period="exp(0.138889)" departLane="free" departSpeed="max"/>
  <flow id="f_0_1" type="car" route="r_O2_D1" begin="10" end="20" period="exp(0.144033)" departLane="free" departSpeed="max"/>
  <flow id="f_0_2" type="car" route="r_O2_D1" begin="20" end="30" period="exp(0.149177)" departLane="free" departSpeed="max"/>
  <flow id="f_0_3" type="car" route="r_O2_D1" begin="30" end="40" period="exp(0.154321)" departLane="free" departSpeed="max"/>
  <flow id="f_0_4" type="car" route="r_O2_D1" begin="40" end="50" period="exp(0.159465)" departLane="free" departSpeed="max"/>
  <flow id="f_0_5" type="car" route="r_O2_D1" begin="50" end="60" period="exp(0.164609)" departLane="free" departSpeed="max"/>
  <flow id="f_0_6" type="car" route="r_O2_D1" begin="60" end="70" period="exp(0.169753)" departLane="free" departSpeed="max"/>
  <flow id="f_0_7" type="car" route="r_O2_D1" begin="70" end="80" period="exp(0.174897)" departLane="free" departSpeed="max"/>
  <flow id="f_0_8" type="car" route="r_O2_D1" begin="80" end="90" period="exp(0.180041)" departLane="free" departSpeed="max"/>
  <flow id="f_0_9" type="car" route="r_O2_D1" begin="90" end="100" period="exp(0.185185)" departLane="free" departSpeed="max"/>
  <flow id="f_0_10" type="car" route="r_O2_D1" begin="100" end="110" period="exp(0.190329)" departLane="free" departSpeed="max"/>
  <flow id="f_0_11" type="car" route="r_O2_D1" begin="110" end="120" period="exp(0.195473)" departLane="free" departSpeed="max"/>
  <flow id="f_0_12" type="car" route="r_O2_D1" begin="120" end="130" period="exp(0.200617)" departLane="free" departSpeed="max"/>
  <flow id="f_0_13" type="car" route="r_O2_D1" begin="130" end="140" period="exp(0.205761)" departLane="free" departSpeed="max"/>
  <flow id="f_0_14" type="car" route="r_O2_D1" begin="140" end="150" period="exp(0.210905)" departLane="free" departSpeed="max"/>
  <flow id="f_0_15" type="car" route="r_O2_D1" begin="150" end="160" period="exp(0.216049)" departLane="free" departSpeed="max"/>
  <flow id="f_0_16" type="car" route="r_O2_D1" begin="160" end="170" period="exp(0.221193)" departLane="free" departSpeed="max"/>
  <flow id="f_0_17" type="car" route="r_O2_D1" begin="170" end="180" period="exp(0.226337)" departLane="free" departSpeed="max"/>
  <flow id="f_0_18" type="car" route="r_O2_D1" begin="180" end="190" period="exp(0.231481)" departLane="free" departSpeed="max"/>
  <flow id="f_0_19" type="car" route="r_O2_D1" begin="190" end="200" period="exp(0.236626)" departLane="free" departSpeed="max"/>
  <flow id="f_0_20" type="car" route="r_O2_D1" begin="200" end="210" period="exp(0.24177)" departLane="free" departSpeed="max"/>
  <flow id="f_0_21" type="car" route="r_O2_D1" begin="210" end="220" period="exp(0.246914)" departLane="free" departSpeed="max"/>
  <flow id="f_0_22" type="car" route="r_O2_D1" begin="220" end="230" period="exp(0.252058)" departLane="free" departSpeed="max"/>
  <flow id="f_0_23" type="car" route="r_O2_D1" begin="230" end="240" period="exp(0.257202)" departLane="free" departSpeed="max"/>
  <flow id="f_0_24" type="car" route="r_O2_D1" begin="240" end="250" period="exp(0.262346)" departLane="free" departSpeed="max"/>
  <flow id="f_0_25" type="car" route="r_O2_D1" begin="250" end="260" period="exp(0.26749)" departLane="free" departSpeed="max"/>
  <flow id="f_0_26" type="car" route="r_O2_D1" begin="260" end="270" period="exp(0.272634)" departLane="free" departSpeed="max"/>
  <flow id="f_0_27" type="car" route="r_O2_D1" begin="270" end="280" period="exp(0.277778)" departLane="free" departSpeed="max"/>
  <flow id="f_0_28" type="car" route="r_O2_D1" begin="280" end="290" period="exp(0.282922)" departLane="free" departSpeed="max"/>
  <flow id="f_0_29" type="car" route="r_O2_D1" begin="290" end="300" period="exp(0.288066)" departLane="free" departSpeed="max"/>
  <flow id="f_0_30" type="car" route="r_O2_D1" begin="300" end="310" period="exp(0.29321)" departLane="free" departSpeed="max"/>
  <flow id="f_0_31" type="car" route="r_O2_D1" begin="310" end="320" period="exp(0.298354)" departLane="free" departSpeed="max"/>
  <flow id="f_0_32" type="car" route="r_O2_D1" begin="320" end="330" period="exp(0.303498)" departLane="free" departSpeed="max"/>
  <flow id="f_0_33" type="car" route="r_O2_D1" begin="330" end="340" period="exp(0.308642)" departLane="free" departSpeed="max"/>
  <flow id="f_0_34" type="car" route="r_O2_D1" begin="340" end="350" period="exp(0.313786)" departLane="free" departSpeed="max"/>
  <flow id="f_0_35" type="car" route="r_O2_D1" begin="350" end="360" period="exp(0.31893)" departLane="free" departSpeed="max"/>
  <flow id="f_0_36" type="car" route="r_O2_D1" begin="360" end="370" period="exp(0.324074)" departLane="free" departSpeed="max"/>
  <flow id="f_0_37" type="car" route="r_O2_D1" begin="370" end="380" period="exp(0.329218)" departLane="free" departSpeed="max"/>
  <flow id="f_0_38" type="car" route="r_O2_D1" begin="380" end="390" period="exp(0.334362)" departLane="free" departSpeed="max"/>
  <flow id="f_0_39" type="car" route="r_O2_D1" begin="390" end="400" period="exp(0.339506)" departLane="free" departSpeed="max"/>
  <flow id="f_0_40" type="car" route="r_O2_D1" begin="400" end="410" period="exp(0.34465)" departLane="free" departSpeed="max"/>
  <flow id="f_0_41" type="car" route="r_O2_D1" begin="410" end="420" period="exp(0.349794)" departLane="free" departSpeed="max"/>
  <flow id="f_0_42" type="car" route="r_O2_D1" begin="420" end="430" period="exp(0.354938)" departLane="free" departSpeed="max"/>
  <flow id="f_0_43" type="car" route="r_O2_D1" begin="430" end="440" period="exp(0.360082)" departLane="free" departSpeed="max"/>
  <flow id="f_0_44" type="car" route="r_O2_D1" begin="440" end="450" period="exp(0.365226)" departLane="free" departSpeed="max"/>
  <flow id="f_0_45" type="car" route="r_O2_D1" begin="450" end="460" period="exp(0.37037)" departLane="free" departSpeed="max"/>
  <flow id="f_0_46" type="car" route="r_O2_D1" begin="460" end="470" period="exp(0.375514)" departLane="free" departSpeed="max"/>
  <flow id="f_0_47" type="car" route="r_O2_D1" begin="470" end="480" period="exp(0.380658)" departLane="free" departSpeed="max"/>
  <flow id="f_0_48" type="car" route="r_O2_D1" begin="480" end="490" period="exp(0.385802)" departLane="free" departSpeed="max"/>
  <flow id="f_0_49" type="car" route="r_O2_D1" begin="490" end="500" period="exp(0.390947)" departLane="free" departSpeed="max"/>
  <flow id="f_0_50" type="car" route="r_O2_D1" begin="500" end="510" period="exp(0.396091)" departLane="free" departSpeed="max"/>
  <flow id="f_0_51" type="car" route="r_O2_D1" begin="510" end="520" period="exp(0.401235)" departLane="free" departSpeed="max"/>
  <flow id="f_0_52" type="car" route="r_O2_D1" begin="520" end="530" period="exp(0.406379)" departLane="free" departSpeed="max"/>
  <flow id="f_0_53" type="car" route="r_O2_D1" begin="530" end="540" period="exp(0.411523)" departLane="free" departSpeed="max"/>
  <flow id="f_0_54" type="car" route="r_O2_D1" begin="540" end="1260" period="exp(0.416667)" departLane="free" departSpeed="max"/>
  <flow id="f_0_55" type="car" route="r_O2_D1" begin="1260" end="1270" period="exp(0.416667)" departLane="free" departSpeed="max"/>
  <flow id="f_0_56" type="car" route="r_O2_D1" begin="1270" end="1280" period="exp(0.411523)" departLane="free" departSpeed="max"/>
  <flow id="f_0_57" type="car" route="r_O2_D1" begin="1280" end="1290" period="exp(0.406379)" departLane="free" departSpeed="max"/>
  <flow id="f_0_58" type="car" route="r_O2_D1" begin="1290" end="1300" period="exp(0.401235)" departLane="free" departSpeed="max"/>
  <flow id="f_0_59" type="car" route="r_O2_D1" begin="1300" end="1310" period="exp(0.396091)" departLane="free" departSpeed="max"/>
  <flow id="f_0_60" type="car" route="r_O2_D1" begin="1310" end="1320" period="exp(0.390947)" departLane="free" departSpeed="max"/>
  <flow id="f_0_61" type="car" route="r_O2_D1" begin="1320" end="1330" period="exp(0.385802)" departLane="free" departSpeed="max"/>
  <flow id="f_0_62" type="car" route="r_O2_D1" begin="1330" end="1340" period="exp(0.380658)" departLane="free" departSpeed="max"/>
  <flow id="f_0_63" type="car" route="r_O2_D1" begin="1340" end="1350" period="exp(0.375514)" departLane="free" departSpeed="max"/>
  <flow id="f_0_64" type="car" route="r_O2_D1" begin="1350" end="1360" period="exp(0.37037)" departLane="free" departSpeed="max"/>
  <flow id="f_0_65" type="car" route="r_O2_D1" begin="1360" end="1370" period="exp(0.365226)" departLane="free" departSpeed="max"/>
  <flow id="f_0_66" type="car" route="r_O2_D1" begin="1370" end="1380" period="exp(0.360082)" departLane="free" departSpeed="max"/>
  <flow id="f_0_67" type="car" route="r_O2_D1" begin="1380" end="1390" period="exp(0.354938)" departLane="free" departSpeed="max"/>
  <flow id="f_0_68" type="car" route="r_O2_D1" begin="1390" end="1400" period="exp(0.349794)" departLane="free" departSpeed="max"/>
  <flow id="f_0_69" type="car" route="r_O2_D1" begin="1400" end="1410" period="exp(0.34465)" departLane="free" departSpeed="max"/>
  <flow id="f_0_70" type="car" route="r_O2_D1" begin="1410" end="1420" period="exp(0.339506)" departLane="free" departSpeed="max"/>
  <flow id="f_0_71" type="car" route="r_O2_D1" begin="1420" end="1430" period="exp(0.334362)" departLane="free" departSpeed="max"/>
  <flow id="f_0_72" type="car" route="r_O2_D1" begin="1430" end="1440" period="exp(0.329218)" departLane="free" departSpeed="max"/>
  <flow id="f_0_73" type="car" route="r_O2_D1" begin="1440" end="1450" period="exp(0.324074)" departLane="free" departSpeed="max"/>
  <flow id="f_0_74" type="car" route="r_O2_D1" begin="1450" end="1460" period="exp(0.31893)" departLane="free" departSpeed="max"/>
  <flow id="f_0_75" type="car" route="r_O2_D1" begin="1460" end="1470" period="exp(0.313786)" departLane="free" departSpeed="max"/>
  <flow id="f_0_76" type="car" route="r_O2_D1" begin="1470" end="1480" period="exp(0.308642)" departLane="free" departSpeed="max"/>
  <flow id="f_0_77" type="car" route="r_O2_D1" begin="1480" end="1490" period="exp(0.303498)" departLane="free" departSpeed="max"/>
  <flow id="f_0_78" type="car" route="r_O2_D1" begin="1490" end="1500" period="exp(0.298354)" departLane="free" departSpeed="max"/>
  <flow id="f_0_79" type="car" route="r_O2_D1" begin="1500" end="1510" period="exp(0.29321)" departLane="free" departSpeed="max"/>
  <flow id="f_0_80" type="car" route="r_O2_D1" begin="1510" end="1520" period="exp(0.288066)" departLane="free" departSpeed="max"/>
  <flow id="f_0_81" type="car" route="r_O2_D1" begin="1520" end="1530" period="exp(0.282922)" departLane="free" departSpeed="max"/>
  <flow id="f_0_82" type="car" route="r_O2_D1" begin="1530" end="1540" period="exp(0.277778)" departLane="free" departSpeed="max"/>
  <flow id="f_0_83" type="car" route="r_O2_D1" begin="1540" end="1550" period="exp(0.272634)" departLane="free" departSpeed="max"/>
  <flow id="f_0_84" type="car" route="r_O2_D1" begin="1550" end="1560" period="exp(0.26749)" departLane="free" departSpeed="max"/>
  <flow id="f_0_85" type="car" route="r_O2_D1" begin="1560" end="1570" period="exp(0.262346)" departLane="free" departSpeed="max"/>
  <flow id="f_0_86" type="car" route="r_O2_D1" begin="1570" end="1580" period="exp(0.257202)" departLane="free" departSpeed="max"/>
  <flow id="f_0_87" type="car" route="r_O2_D1" begin="1580" end="1590" period="exp(0.252058)" departLane="free" departSpeed="max"/>
  <flow id="f_0_88" type="car" route="r_O2_D1" begin="1590" end="1600" period="exp(0.246914)" departLane="free" departSpeed="max"/>
  <flow id="f_0_89" type="car" route="r_O2_D1" begin="1600" end="1610" period="exp(0.24177)" departLane="free" departSpeed="max"/>
  <flow id="f_0_90" type="car" route="r_O2_D1" begin="1610" end="1620" period="exp(0.236626)" departLane="free" departSpeed="max"/>
  <flow id="f_0_91" type="car" route="r_O2_D1" begin="1620" end="1630" period="exp(0.231481)" departLane="free" departSpeed="max"/>
  <flow id="f_0_92" type="car" route="r_O2_D1" begin="1630" end="1640" period="exp(0.226337)" departLane="free" departSpeed="max"/>
  <flow id="f_0_93" type="car" route="r_O2_D1" begin="1640" end="1650" period="exp(0.221193)" departLane="free" departSpeed="max"/>
  <flow id="f_0_94" type="car" route="r_O2_D1" begin="1650" end="1660" period="exp(0.216049)" departLane="free" departSpeed="max"/>
  <flow id="f_0_95" type="car" route="r_O2_D1" begin="1660" end="1670" period="exp(0.210905)" departLane="free" departSpeed="max"/>
  <flow id="f_0_96" type="car" route="r_O2_D1" begin="1670" end="1680" period="exp(0.205761)" departLane="free" departSpeed="max"/>
  <flow id="f_0_97" type="car" route="r_O2_D1" begin="1680" end="1690" period="exp(0.200617)" departLane="free" departSpeed="max"/>
  <flow id="f_0_98" type="car" route="r_O2_D1" begin="1690" end="1700" period="exp(0.195473)" departLane="free" departSpeed="max"/>
  <flow id="f_0_99" type="car" route="r_O2_D1" begin="1700" end="1710" period="exp(0.190329)" departLane="free" departSpeed="max"/>
  <flow id="f_0_100" type="car" route="r_O2_D1" begin="1710" end="1720" period="exp(0.185185)" departLane="free" departSpeed="max"/>
  <flow id="f_0_101" type="car" route="r_O2_D1" begin="1720" end="1730" period="exp(0.180041)" departLane="free" departSpeed="max"/>
  <flow id="f_0_102" type="car" route="r_O2_D1" begin="1730" end="1740" period="exp(0.174897)" departLane="free" departSpeed="max"/>
  <flow id="f_0_103" type="car" route="r_O2_D1" begin="1740" end="1750" period="exp(0.169753)" departLane="free" departSpeed="max"/>
  <flow id="f_0_104" type="car" route="r_O2_D1" begin="1750" end="1760" period="exp(0.164609)" departLane="free" departSpeed="max"/>
  <flow id="f_0_105" type="car" route="r_O2_D1" begin="1760" end="1770" period="exp(0.159465)" departLane="free" departSpeed="max"/>
  <flow id="f_0_106" type="car" route="r_O2_D1" begin="1770" end="1780" period="exp(0.154321)" departLane="free" departSpeed="max"/>
  <flow id="f_0_107" type="car" route="r_O2_D1" begin="1780" end="1790" period="exp(0.149177)" departLane="free" departSpeed="max"/>
  <flow id="f_0_108" type="car" route="r_O2_D1" begin="1790" end="1800" period="exp(0.144033)" departLane="free" departSpeed="max"/>
  <flow id="f_0_109" type="car" route="r_O2_D1" begin="1800" end="9000" period="exp(0.138889)" departLane="free" departSpeed="max"/>
  <flow id="flow1_0" type="car" route="r_O1_D1" begin="0" end="7200" period="exp(0.972222)" departLane="free" departSpeed="max"/>
  <flow id="flow1_1" type="car" route="r_O1_D1" begin="7200" end="7210" period="exp(0.972222)" departLane="free" departSpeed="max"/>
  <flow id="flow1_2" type="car" route="r_O1_D1" begin="7210" end="7220" period="exp(0.964506)" departLane="free" departSpeed="max"/>
  <flow id="flow1_3" type="car" route="r_O1_D1" begin="7220" end="7230" period="exp(0.95679)" departLane="free" departSpeed="max"/>
  <flow id="flow1_4" type="car" route="r_O1_D1" begin="7230" end="7240" period="exp(0.949074)" departLane="free" departSpeed="max"/>
  <flow id="flow1_5" type="car" route="r_O1_D1" begin="7240" end="7250" period="exp(0.941358)" departLane="free" departSpeed="max"/>
  <flow id="flow1_6" type="car" route="r_O1_D1" begin="7250" end="7260" period="exp(0.933642)" departLane="free" departSpeed="max"/>
  <flow id="flow1_7" type="car" route="r_O1_D1" begin="7260" end="7270" period="exp(0.925926)" departLane="free" departSpeed="max"/>
  <flow id="flow1_8" type="car" route="r_O1_D1" begin="7270" end="7280" period="exp(0.91821)" departLane="free" departSpeed="max"/>
  <flow id="flow1_9" type="car" route="r_O1_D1" begin="7280" end="7290" period="exp(0.910494)" departLane="free" departSpeed="max"/>
  <flow id="flow1_10" type="car" route="r_O1_D1" begin="7290" end="7300" period="exp(0.902778)" departLane="free" departSpeed="max"/>
  <flow id="flow1_11" type="car" route="r_O1_D1" begin="7300" end="7310" period="exp(0.895062)" departLane="free" departSpeed="max"/>
  <flow id="flow1_12" type="car" route="r_O1_D1" begin="7310" end="7320" period="exp(0.887346)" departLane="free" departSpeed="max"/>
  <flow id="flow1_13" type="car" route="r_O1_D1" begin="7320" end="7330" period="exp(0.87963)" departLane="free" departSpeed="max"/>
  <flow id="flow1_14" type="car" route="r_O1_D1" begin="7330" end="7340" period="exp(0.871914)" departLane="free" departSpeed="max"/>
  <flow id="flow1_15" type="car" route="r_O1_D1" begin="7340" end="7350" period="exp(0.864198)" departLane="free" departSpeed="max"/>
  <flow id="flow1_16" type="car" route="r_O1_D1" begin="7350" end="7360" period="exp(0.856481)" departLane="free" departSpeed="max"/>
  <flow id="flow1_17" type="car" route="r_O1_D1" begin="7360" end="7370" period="exp(0.848765)" departLane="free" departSpeed="max"/>
  <flow id="flow1_18" type="car" route="r_O1_D1" begin="7370" end="7380" period="exp(0.841049)" departLane="free" departSpeed="max"/>
  <flow id="flow1_19" type="car" route="r_O1_D1" begin="7380" end="7390" period="exp(0.833333)" departLane="free" departSpeed="max"/>
  <flow id="flow1_20" type="car" route="r_O1_D1" begin="7390" end="7400" period="exp(0.825617)" departLane="free" departSpeed="max"/>
  <flow id="flow1_21" type="car" route="r_O1_D1" begin="7400" end="7410" period="exp(0.817901)" departLane="free" departSpeed="max"/>
  <flow id="flow1_22" type="car" route="r_O1_D1" begin="7410" end="7420" period="exp(0.810185)" departLane="free" departSpeed="max"/>
  <flow id="flow1_23" type="car" route="r_O1_D1" begin="7420" end="7430" period="exp(0.802469)" departLane="free" departSpeed="max"/>
  <flow id="flow1_24" type="car" route="r_O1_D1" begin="7430" end="7440" period="exp(0.794753)" departLane="free" departSpeed="max"/>
  <flow id="flow1_25" type="car" route="r_O1_D1" begin="7440" end="7450" period="exp(0.787037)" departLane="free" departSpeed="max"/>
  <flow id="flow1_26" type="car" route="r_O1_D1" begin="7450" end="7460" period="exp(0.779321)" departLane="free" departSpeed="max"/>
  <flow id="flow1_27" type="car" route="r_O1_D1" begin="7460" end="7470" period="exp(0.771605)" departLane="free" departSpeed="max"/>
  <flow id="flow1_28" type="car" route="r_O1_D1" begin="7470" end="7480" period="exp(0.763889)" departLane="free" departSpeed="max"/>
  <flow id="flow1_29" type="car" route="r_O1_D1" begin="7480" end="7490" period="exp(0.756173)" departLane="free" departSpeed="max"/>
  <flow id="flow1_30" type="car" route="r_O1_D1" begin="7490" end="7500" period="exp(0.748457)" departLane="free" departSpeed="max"/>
  <flow id="flow1_31" type="car" route="r_O1_D1" begin="7500" end="7510" period="exp(0.740741)" departLane="free" departSpeed="max"/>
  <flow id="flow1_32" type="car" route="r_O1_D1" begin="7510" end="7520" period="exp(0.733025)" departLane="free" departSpeed="max"/>
  <flow id="flow1_33" type="car" route="r_O1_D1" begin="7520" end="7530" period="exp(0.725309)" departLane="free" departSpeed="max"/>
  <flow id="flow1_34" type="car" route="r_O1_D1" begin="7530" end="7540" period="exp(0.717593)" departLane="free" departSpeed="max"/>
  <flow id="flow1_35" type="car" route="r_O1_D1" begin="7540" end="7550" period="exp(0.709877)" departLane="free" departSpeed="max"/>
  <flow id="flow1_36" type="car" route="r_O1_D1" begin="7550" end="7560" period="exp(0.70216)" departLane="free" departSpeed="max"/>
  <flow id="flow1_37" type="car" route="r_O1_D1" begin="7560" end="7570" period="exp(0.694444)" departLane="free" departSpeed="max"/>
  <flow id="flow1_38" type="car" route="r_O1_D1" begin="7570" end="7580" period="exp(0.686728)" departLane="free" departSpeed="max"/>
  <flow id="flow1_39" type="car" route="r_O1_D1" begin="7580" end="7590" period="exp(0.679012)" departLane="free" departSpeed="max"/>
  <flow id="flow1_40" type="car" route="r_O1_D1" begin="7590" end="7600" period="exp(0.671296)" departLane="free" departSpeed="max"/>
  <flow id="flow1_41" type="car" route="r_O1_D1" begin="7600" end="7610" period="exp(0.66358)" departLane="free" departSpeed="max"/>
  <flow id="flow1_42" type="car" route="r_O1_D1" begin="7610" end="7620" period="exp(0.655864)" departLane="free" departSpeed="max"/>
  <flow id="flow1_43" type="car" route="r_O1_D1" begin="7620" end="7630" period="exp(0.648148)" departLane="free" departSpeed="max"/>
  <flow id="flow1_44" type="car" route="r_O1_D1" begin="7630" end="7640" period="exp(0.640432)" departLane="free" departSpeed="max"/>
  <flow id="flow1_45" type="car" route="r_O1_D1" begin="7640" end="7650" period="exp(0.632716)" departLane="free" departSpeed="max"/>
  <flow id="flow1_46" type="car" route="r_O1_D1" begin="7650" end="7660" period="exp(0.625)" departLane="free" departSpeed="max"/>
  <flow id="flow1_47" type="car" route="r_O1_D1" begin="7660" end="7670" period="exp(0.617284)" departLane="free" departSpeed="max"/>
  <flow id="flow1_48" type="car" route="r_O1_D1" begin="7670" end="7680" period="exp(0.609568)" departLane="free" departSpeed="max"/>
  <flow id="flow1_49" type="car" route="r_O1_D1" begin="7680" end="7690" period="exp(0.601852)" departLane="free" departSpeed="max"/>
  <flow id="flow1_50" type="car" route="r_O1_D1" begin="7690" end="7700" period="exp(0.594136)" departLane="free" departSpeed="max"/>
  <flow id="flow1_51" type="car" route="r_O1_D1" begin="7700" end="7710" period="exp(0.58642)" departLane="free" departSpeed="max"/>
  <flow id="flow1_52" type="car" route="r_O1_D1" begin="7710" end="7720" period="exp(0.578704)" departLane="free" departSpeed="max"/>
  <flow id="flow1_53" type="car" route="r_O1_D1" begin="7720" end="7730" period="exp(0.570988)" departLane="free" departSpeed="max"/>
  <flow id="flow1_54" type="car" route="r_O1_D1" begin="7730" end="7740" period="exp(0.563272)" departLane="free" departSpeed="max"/>
  <flow id="flow1_55" type="car" route="r_O1_D1" begin="7740" end="7750" period="exp(0.555556)" departLane="free" departSpeed="max"/>
  <flow id="flow1_56" type="car" route="r_O1_D1" begin="7750" end="7760" period="exp(0.54784)" departLane="free" departSpeed="max"/>
  <flow id="flow1_57" type="car" route="r_O1_D1" begin="7760" end="7770" period="exp(0.540123)" departLane="free" departSpeed="max"/>
  <flow id="flow1_58" type="car" route="r_O1_D1" begin="7770" end="7780" period="exp(0.532407)" departLane="free" departSpeed="max"/>
  <flow id="flow1_59" type="car" route="r_O1_D1" begin="7780" end="7790" period="exp(0.524691)" departLane="free" departSpeed="max"/>
  <flow id="flow1_60" type="car" route="r_O1_D1" begin="7790" end="7800" period="exp(0.516975)" departLane="free" departSpeed="max"/>
  <flow id="flow1_61" type="car" route="r_O1_D1" begin="7800" end="7810" period="exp(0.509259)" departLane="free" departSpeed="max"/>
  <flow id="flow1_62" type="car" route="r_O1_D1" begin="7810" end="7820" period="exp(0.501543)" departLane="free" departSpeed="max"/>
  <flow id="flow1_63" type="car" route="r_O1_D1" begin="7820" end="7830" period="exp(0.493827)" departLane="free" departSpeed="max"/>
  <flow id="flow1_64" type="car" route="r_O1_D1" begin="7830" end="7840" period="exp(0.486111)" departLane="free" departSpeed="max"/>
  <flow id="flow1_65" type="car" route="r_O1_D1" begin="7840" end="7850" period="exp(0.478395)" departLane="free" departSpeed="max"/>
  <flow id="flow1_66" type="car" route="r_O1_D1" begin="7850" end="7860" period="exp(0.470679)" departLane="free" departSpeed="max"/>
  <flow id="flow1_67" type="car" route="r_O1_D1" begin="7860" end="7870" period="exp(0.462963)" departLane="free" departSpeed="max"/>
  <flow id="flow1_68" type="car" route="r_O1_D1" begin="7870" end="7880" period="exp(0.455247)" departLane="free" departSpeed="max"/>
  <flow id="flow1_69" type="car" route="r_O1_D1" begin="7880" end="7890" period="exp(0.447531)" departLane="free" departSpeed="max"/>
  <flow id="flow1_70" type="car" route="r_O1_D1" begin="7890" end="7900" period="exp(0.439815)" departLane="free" departSpeed="max"/>
  <flow id="flow1_71" type="car" route="r_O1_D1" begin="7900" end="7910" period="exp(0.432099)" departLane="free" departSpeed="max"/>
  <flow id="flow1_72" type="car" route="r_O1_D1" begin="7910" end="7920" period="exp(0.424383)" departLane="free" departSpeed="max"/>
  <flow id="flow1_73" type="car" route="r_O1_D1" begin="7920" end="7930" period="exp(0.416667)" departLane="free" departSpeed="max"/>
  <flow id="flow1_74" type="car" route="r_O1_D1" begin="7930" end="7940" period="exp(0.408951)" departLane="free" departSpeed="max"/>
  <flow id="flow1_75" type="car" route="r_O1_D1" begin="7940" end="7950" period="exp(0.401235)" departLane="free" departSpeed="max"/>
  <flow id="flow1_76" type="car" route="r_O1_D1" begin="7950" end="7960" period="exp(0.393519)" departLane="free" departSpeed="max"/>
  <flow id="flow1_77" type="car" route="r_O1_D1" begin="7960" end="7970" period="exp(0.385802)" departLane="free" departSpeed="max"/>
  <flow id="flow1_78" type="car" route="r_O1_D1" begin="7970" end="7980" period="exp(0.378086)" departLane="free" departSpeed="max"/>
  <flow id="flow1_79" type="car" route="r_O1_D1" begin="7980" end="7990" period="exp(0.37037)" departLane="free" departSpeed="max"/>
  <flow id="flow1_80" type="car" route="r_O1_D1" begin="7990" end="8000" period="exp(0.362654)" departLane="free" departSpeed="max"/>
  <flow id="flow1_81" type="car" route="r_O1_D1" begin="8000" end="8010" period="exp(0.354938)" departLane="free" departSpeed="max"/>
  <flow id="flow1_82" type="car" route="r_O1_D1" begin="8010" end="8020" period="exp(0.347222)" departLane="free" departSpeed="max"/>
  <flow id="flow1_83" type="car" route="r_O1_D1" begin="8020" end="8030" period="exp(0.339506)" departLane="free" departSpeed="max"/>
  <flow id="flow1_84" type="car" route="r_O1_D1" begin="8030" end="8040" period="exp(0.33179)" departLane="free" departSpeed="max"/>
  <flow id="flow1_85" type="car" route="r_O1_D1" begin="8040" end="8050" period="exp(0.324074)" departLane="free" departSpeed="max"/>
  <flow id="flow1_86" type="car" route="r_O1_D1" begin="8050" end="8060" period="exp(0.316358)" departLane="free" departSpeed="max"/>
  <flow id="flow1_87" type="car" route="r_O1_D1" begin="8060" end="8070" period="exp(0.308642)" departLane="free" departSpeed="max"/>
  <flow id="flow1_88" type="car" route="r_O1_D1" begin="8070" end="8080" period="exp(0.300926)" departLane="free" departSpeed="max"/>
  <flow id="flow1_89" type="car" route="r_O1_D1" begin="8080" end="8090" period="exp(0.29321)" departLane="free" departSpeed="max"/>
  <flow id="flow1_90" type="car" route="r_O1_D1" begin="8090" end="8100" period="exp(0.285494)" departLane="free" departSpeed="max"/>
  <flow id="flow1_91" type="car" route="r_O1_D1" begin="8100" end="9000" period="exp(0.277778)" departLane="free" departSpeed="max"/>
  <flow id="flow2_0" type="car" route="r_O1_D1" begin="0" end="7200" period="exp(0.972222)" departLane="free" departSpeed="20.0"/>
  <flow id="flow2_1" type="car" route="r_O1_D1" begin="7200" end="7210" period="exp(0.972222)" departLane="free" departSpeed="20.0"/>
  <flow id="flow2_2" type="car" route="r_O1_D1" begin="7210" end="7220" period="exp(0.964506)" departLane="free" departSpeed="20.0"/>
  <flow id="flow2_3" type="car" route="r_O1_D1" begin="7220" end="7230" period="exp(0.95679)" departLane="free" departSpeed="20.0"/>
  <flow id="flow2_4" type="car" route="r_O1_D1" begin="7230" end="7240" period="exp(0.949074)" departLane="free" departSpeed="20.0"/>
  <flow id="flow2_5" type="car" route="r_O1_D1" begin="7240" end="7250" period="exp(0.941358)" departLane="free" departSpeed="20.0"/>
  <flow id="flow2_6" type="car" route="r_O1_D1" begin="7250" end="7260" period="exp(0.933642)" departLane="free" departSpeed="20.0"/>
  <flow id="flow2_7" type="car" route="r_O1_D1" begin="7260" end="7270" period="exp(0.925926)" departLane="free" departSpeed="20.0"/>
  <flow id="flow2_8" type="car" route="r_O1_D1" begin="7270" end="7280" period="exp(0.91821)" departLane="free" departSpeed="20.0"/>
  <flow id="flow2_9" type="car" route="r_O1_D1" begin="7280" end="7290" period="exp(0.910494)" departLane="free" departSpeed="20.0"/>
  <flow id="flow2_10" type="car" route="r_O1_D1" begin="7290" end="7300" period="exp(0.902778)" departLane="free" departSpeed="20.0"/>
  <flow id="flow2_11" type="car" route="r_O1_D1" begin="7300" end="7310" period="exp(0.895062)" departLane="free" departSpeed="20.0"/>
  <flow id="flow2_12" type="car" route="r_O1_D1" begin="7310" end="7320" period="exp(0.887346)" departLane="free" departSpeed="20.0"/>
  <flow id="flow2_13" type="car" route="r_O1_D1" begin="7320" end="7330" period="exp(0.87963)" departLane="free" departSpeed="20.0"/>
  <flow id="flow2_14" type="car" route="r_O1_D1" begin="7330" end="7340" period="exp(0.871914)" departLane="free" departSpeed="20.0"/>
  <flow id="flow2_15" type="car" route="r_O1_D1" begin="7340" end="7350" period="exp(0.864198)" departLane="free" departSpeed="20.0"/>
  <flow id="flow2_16" type="car" route="r_O1_D1" begin="7350" end="7360" period="exp(0.856481)" departLane="free" departSpeed="20.0"/>
  <flow id="flow2_17" type="car" route="r_O1_D1" begin="7360" end="7370" period="exp(0.848765)" departLane="free" departSpeed="20.0"/>
  <flow id="flow2_18" type="car" route="r_O1_D1" begin="7370" end="7380" period="exp(0.841049)" departLane="free" departSpeed="20.0"/>
  <flow id="flow2_19" type="car" route="r_O1_D1" begin="7380" end="7390" period="exp(0.833333)" departLane="free" departSpeed="20.0"/>